! B3LYP/G OPT FREQ 6-311G* CPCM(Water)

%tddft
    NRoots 3
    IRoot 1
end 

* xyz 1 1 
C  -3.47262362536682633873 -0.55193254196802521427 1.86903503578289642562
C  -3.47877254227856447244 -0.69782370381254965608 0.55430395426239120749
C  -3.89897727193752130503 -1.54798570596737361527 1.57841580129324920989
C  -3.17447295894793501958 -1.66052380622195272508 2.73930607842403173180
C  -2.38517401406239315520 0.11781304596349362335 0.73916914681602974291
C  -1.68810176950041279653 0.10781638410681404494 1.97253412353203283480
O  -1.79000602468897263009 0.85541365947212599785 -0.25643381844518819968
C  -2.03607432050333914120 -0.86898819033452356919 2.94184688896287038773
C  -1.18116833667696008447 -1.07603672360270685715 4.06397454132008473238
C  0.00354719391779889648 -0.42974840108554746010 4.17098221066915186839
C  -0.58114386992023459033 0.96140958968568757115 2.24135962049272796648
C  0.34752762171743167841 0.60588475628284643726 3.25569783856423589086
N  -0.38993130022726796291 2.12797215998030697648 1.56683541710606366593
C  0.77859929266584959606 2.78095098692092346226 1.63584250190328206465
C  1.80041971568265202208 2.35259014856150461270 2.45670545300020926049
C  1.55175509336255856851 1.31394596317244127803 3.33687546488314179527
C  -2.42273465567494383777 1.18136878858775817847 -1.43218864007692925355
O  -3.63561652274342783642 1.28075111736130775597 -1.53190733103866083553
N  -1.54831497589203581633 1.40584892257976123986 -2.40888660267147614036
C  -0.11215338622890991260 1.31214804575333521264 -2.24529751312256076190
C  -2.00872080153029131111 1.87923816241369423530 -3.69667117019777968778
H  -3.08923995310704535555 2.00110424266764930223 -3.66631593172643022172
H  -1.75207667590697435678 1.15414481085683950923 -4.46948258933508668633
H  -1.53935769455116178150 2.83412165674707594576 -3.92925175348690114419
H  0.30237672107275548328 2.28517372999618695317 -1.97919412223519142202
H  0.31627477453806274177 0.98312312379694410946 -3.18968336226193205363
H  0.13425261304889746228 0.59231007750699671277 -1.46991166108760307196
H  -3.45963007956374823948 -2.37519820004188186857 3.49449307055977786973
H  -4.01060923142720326950 -0.67989350239786539021 -0.38330354551689649334
H  -4.77708620106637305014 -2.15354852397537044340 1.42081021673173557573
H  -1.47622336500535622505 -1.81652029199861431152 4.79016671983818298486
H  0.69821911313142637212 -0.66087773500703139717 4.96203293432594172430
H  0.84602371804600462468 3.67971890696761150252 1.04224036573440081987
H  2.74115020787995700147 2.87718195392584119574 2.45938975666553849564
H  2.27235984891029163535 1.04474917939710443271 4.09364385229695670887
P  -1.76009110587227657341 3.15237906446799076576 1.13436351628768661293
O  -3.10750858126901707834 2.62122467049685514695 1.34664660551546311318
O  -1.27815181976862213276 3.61739756754027919072 -0.28420748238979109956
O  -1.43145047355229571018 4.39717179990928741518 2.06669799952041088886
C  -2.12404318124731261719 4.40543066518313430890 -1.14016203147746164603
C  -2.14170941064298192558 4.61078173328939389108 3.29051553452970457769
C  -2.52628089600873995124 5.72283812229132138327 -0.50937263195900905899
H  -3.01497981882653709462 3.82379491488024481072 -1.39715681339125064042
H  -1.52000014329085941789 4.56788581649095348780 -2.03437917230697662418
H  -3.18312883794633094681 5.54683288590138623420 0.34106110907318520908
H  -3.05901142946360149466 6.32160446335016956709 -1.24255802082932786945
H  -1.64804998265176649852 6.26797495735454202048 -0.17330037078143134543
C  -1.63669316211636273195 3.70248893883548024775 4.39551399414943144706
H  -3.20827845259657618016 4.44047719376840532846 3.11608648296100199104
H  -1.97297856535445692572 5.66199700200859545873 3.53007810727926285566
H  -1.88019226165952368923 2.66646052675696054735 4.16534855787802982263
H  -2.11967090840405791852 3.97292910841134006006 5.32970192428650957339
H  -0.56101096975229525210 3.80775596744437017094 4.50987475449757546642
*
