! B3LYP/G VERYTIGHTOPT FREQ Def2-TZVP(-f) Def2-TZVP/C Def2/J RIJCOSX TightSCF CPCM(Water) AllPop SOSCF

* xyz 1 1 
  C   -2.88921015477888     -1.04119380288355      1.72248836172056
  C   -2.16409634834910     -2.23082224074138      1.86467775128677
  C   -0.89217469236820     -2.32448411985357      1.34921245763742
  C   -2.30237383927810      0.06729941807168      1.16102006186009
  C   -0.94899268803239      0.05265763042581      0.74986474335673
  O   -3.11277680981444      1.18097415538948      0.96821133598004
  C   -0.28574972103503     -1.21176729292525      0.73910187051739
  C   0.93335698735527     -1.37194873146861      0.00721315390665
  C   1.42047511616529     -0.36739045715056     -0.75669615937624
  C   -0.23313974544104      1.17344875397831      0.21024894521806
  C   0.84201859347506      0.93754346657660     -0.68190852648221
  N   -0.52648018250786      2.49407220348439      0.52221157502478
  C   -0.06057864473657      3.49521295464553     -0.26097740288897
  C   0.79616642351230      3.26633468422734     -1.31655283846005
  C   1.32269578001734      1.99847843762888     -1.46110904212550
  C   -3.67865988232665      1.30841147198873     -0.29745573971028
  O   -3.10962166791853      0.90603693471208     -1.29697508643372
  N   -4.85441685025771      1.95462670431025     -0.26317039699187
  C   -5.51198453655477      2.27358040467826     -1.52713171151022
  C   -5.66104384747276      2.16294905874194      0.93663646392459
  H   -5.12592916842185      1.83553881295832      1.81920652644871
  H   -6.59135885971264      1.59646552203956      0.85024297887753
  H   -5.90864505650416      3.22098914537363      1.03455883495525
  H   -6.26349769098049      1.51923689684801     -1.77477744983822
  H   -4.77679292896262      2.32099938483425     -2.32391468600491
  H   -6.00506786646520      3.24058460319322     -1.42951740144124
  H   -0.35646746432384     -3.26466694646274      1.36694849954184
  H   -3.92650963009219     -0.98567353658160      2.02415263086376
  H   -2.63236154029825     -3.08974068682562      2.32700640405988
  H   1.40692070279874     -2.34516741148904      0.01060479967083
  H   2.27272041537709     -0.51178106830953     -1.40753459715588
  H   -0.34630554124811      4.49545741105353      0.02796989782990
  H   1.11485308476827      4.09399038126787     -1.93235273267718
  H   2.11205750470783      1.80729831297891     -2.17732612607870
  P   -0.83244442202281      3.03384438979738      2.23663578205610
  O   -1.34991073255698      1.94791903144054      3.06471332848091
  O   -1.63542103556052      4.35301338380783      2.04166794460244
  O   0.57238388074459      3.62672198657959      2.60115378038685
  C   -3.10869637457931      4.44622235770892      2.03055530262885
  C   1.65210972012374      2.79812118028817      3.17224893126269
  C   -3.48475441739224      5.82946495964930      2.49645780861439
  H   -3.49994245953106      3.67233324660178      2.68623540599165
  H   -3.42519366888226      4.25936476027079      1.00689415485441
  H   -3.14703955309769      6.00431960017299      3.51820802422791
  H   -4.57216785485315      5.92188260280781      2.47067667533980
  H   -3.05983469279655      6.59201861533511      1.84300280928101
  C   2.73619677835376      3.73015608462587      3.65118793864666
  H   2.00822987737997      2.13187488714025      2.38742529012920
  H   1.22798234274163      2.21202206860536      3.98503128599160
  H   3.13558555985586      4.32295053232557      2.82778687285391
  H   3.54796669491238      3.13493462272848      4.07328980831882
  H   2.36161110686483      4.40034523539913      4.42550146082719
*