52
Coordinates from ORCA-job HBQ-DCP_GS E -1604.008222520274
  C      -2.889210     -1.041194      1.722488
  C      -2.164096     -2.230822      1.864678
  C      -0.892175     -2.324484      1.349212
  C      -2.302374      0.067299      1.161020
  C      -0.948993      0.052658      0.749865
  O      -3.112777      1.180974      0.968211
  C      -0.285750     -1.211767      0.739102
  C       0.933357     -1.371949      0.007213
  C       1.420475     -0.367390     -0.756696
  C      -0.233140      1.173449      0.210249
  C       0.842019      0.937543     -0.681909
  N      -0.526480      2.494072      0.522212
  C      -0.060579      3.495213     -0.260977
  C       0.796166      3.266335     -1.316553
  C       1.322696      1.998478     -1.461109
  C      -3.678660      1.308411     -0.297456
  O      -3.109622      0.906037     -1.296975
  N      -4.854417      1.954627     -0.263170
  C      -5.511985      2.273580     -1.527132
  C      -5.661044      2.162949      0.936636
  H      -5.125929      1.835539      1.819207
  H      -6.591359      1.596466      0.850243
  H      -5.908645      3.220989      1.034559
  H      -6.263498      1.519237     -1.774777
  H      -4.776793      2.320999     -2.323915
  H      -6.005068      3.240585     -1.429517
  H      -0.356467     -3.264667      1.366948
  H      -3.926510     -0.985674      2.024153
  H      -2.632362     -3.089741      2.327006
  H       1.406921     -2.345167      0.010605
  H       2.272720     -0.511781     -1.407535
  H      -0.346306      4.495457      0.027970
  H       1.114853      4.093990     -1.932353
  H       2.112058      1.807298     -2.177326
  P      -0.832444      3.033844      2.236636
  O      -1.349911      1.947919      3.064713
  O      -1.635421      4.353013      2.041668
  O       0.572384      3.626722      2.601154
  C      -3.108696      4.446222      2.030555
  C       1.652110      2.798121      3.172249
  C      -3.484754      5.829465      2.496458
  H      -3.499942      3.672333      2.686235
  H      -3.425194      4.259365      1.006894
  H      -3.147040      6.004320      3.518208
  H      -4.572168      5.921883      2.470677
  H      -3.059835      6.592019      1.843003
  C       2.736197      3.730156      3.651188
  H       2.008230      2.131875      2.387425
  H       1.227982      2.212022      3.985031
  H       3.135586      4.322951      2.827787
  H       3.547967      3.134935      4.073290
  H       2.361611      4.400345      4.425501
52
Coordinates from ORCA-job HBQ-DCP_GS E -1604.008221295214
  C      -2.890922     -1.041002      1.721819
  C      -2.166935     -2.231375      1.863675
  C      -0.895020     -2.326060      1.348383
  C      -2.302947      0.067107      1.160799
  C      -0.949539      0.051294      0.749791
  O      -3.112134      1.181752      0.968461
  C      -0.287441     -1.213708      0.738744
  C       0.931687     -1.374710      0.007065
  C       1.419874     -0.370333     -0.756406
  C      -0.232633      1.171604      0.210608
  C       0.842504      0.935075     -0.681396
  N      -0.525174      2.492357      0.522715
  C      -0.058504      3.493294     -0.260267
  C       0.798371      3.264011     -1.315661
  C       1.324109      1.995831     -1.460273
  C      -3.677617      1.310670     -0.297208
  O      -3.109153      0.907753     -1.296832
  N      -4.852192      1.959051     -0.262782
  C      -5.509107      2.279638     -1.526668
  C      -5.658553      2.168320      0.937042
  H      -5.124156      1.839450      1.819501
  H      -6.589936      1.603651      0.850275
  H      -5.904128      3.226787      1.035458
  H      -6.262154      1.526885     -1.774493
  H      -4.773807      2.325730     -2.323428
  H      -6.000211      3.247629     -1.428829
  H      -0.360193     -3.266749      1.365907
  H      -3.928190     -0.984596      2.023423
  H      -2.636075     -3.089995      2.325671
  H       1.404400     -2.348344      0.010231
  H       2.272119     -0.515301     -1.407117
  H      -0.343656      4.493689      0.028719
  H       1.117723      4.091552     -1.931271
  H       2.113492      1.804214     -2.176351
  P      -0.831230      3.032012      2.237123
  O      -1.345309      1.945109      3.066010
  O      -1.637785      4.348970      2.042161
  O       0.572334      3.628640      2.600384
  C      -3.111295      4.438295      2.032030
  C       1.654403      2.803200      3.171549
  C      -3.490673      5.820963      2.496968
  H      -3.500044      3.663985      2.688701
  H      -3.428065      4.249664      1.008771
  H      -3.152704      5.997608      3.518327
  H      -4.578340      5.910502      2.471848
  H      -3.068194      6.584041      1.842543
  C       2.736904      3.738229      3.648235
  H       2.011289      2.136637      2.387340
  H       1.232331      2.217252      3.985513
  H       3.134261      4.330767      2.823665
  H       3.550336      3.145338      4.070413
  H       2.361568      4.408676      4.421964
52
Coordinates from ORCA-job HBQ-DCP_GS E -1604.008222685262
  C      -2.889475     -1.041171      1.722492
  C      -2.164477     -2.230894      1.864619
  C      -0.892586     -2.324690      1.349127
  C      -2.302505      0.067256      1.161051
  C      -0.949127      0.052462      0.749874
  O      -3.112772      1.181040      0.968283
  C      -0.286026     -1.212023      0.739050
  C       0.933068     -1.372279      0.007162
  C       1.420341     -0.367721     -0.756645
  C      -0.233134      1.173211      0.210345
  C       0.842042      0.937281     -0.681783
  N      -0.526382      2.493830      0.522420
  C      -0.060395      3.494977     -0.260702
  C       0.796384      3.266122     -1.316262
  C       1.322844      1.998248     -1.460866
  C      -3.678370      1.308871     -0.297442
  O      -3.109346      0.906400     -1.296923
  N      -4.853933      1.955490     -0.263237
  C      -5.511321      2.274639     -1.527241
  C      -5.660708      2.163778      0.936484
  H      -5.125837      1.836016      1.819069
  H      -6.591168      1.597577      0.849811
  H      -5.908011      3.221870      1.034594
  H      -6.263229      1.520663     -1.774802
  H      -4.776082      2.321551     -2.324009
  H      -6.003881      3.241925     -1.429750
  H      -0.356992     -3.264940      1.366818
  H      -3.926762     -0.985558      2.024175
  H      -2.632845     -3.089764      2.326934
  H       1.406522     -2.345553      0.010467
  H       2.272580     -0.512204     -1.407471
  H      -0.346051      4.495233      0.028273
  H       1.115141      4.093809     -1.931982
  H       2.112246      1.807045     -2.177035
  P      -0.832307      3.033446      2.236856
  O      -1.349176      1.947300      3.064996
  O      -1.635881      4.352241      2.042014
  O       0.572331      3.626887      2.601167
  C      -3.109170      4.444838      2.030929
  C       1.652264      2.798860      3.172607
  C      -3.485804      5.828010      2.496597
  H      -3.500104      3.670922      2.686768
  H      -3.425641      4.257657      1.007317
  H      -3.148171      6.003161      3.518324
  H      -4.573250      5.919989      2.470763
  H      -3.061156      6.590617      1.843026
  C       2.736676      3.731300      3.650018
  H       2.007993      2.131671      2.388401
  H       1.228497      2.213663      3.986231
  H       3.135760      4.323134      2.825776
  H       3.548558      3.136449      4.072421
  H       2.362517      4.402415      4.423738
52
Coordinates from ORCA-job HBQ-DCP_GS E -1604.008222768075
  C      -2.889310     -1.041370      1.722612
  C      -2.164181     -2.231023      1.864726
  C      -0.892309     -2.324708      1.349180
  C      -2.302465      0.067097      1.161131
  C      -0.949095      0.052431      0.749915
  O      -3.112852      1.180797      0.968380
  C      -0.285874     -1.211986      0.739071
  C       0.933212     -1.372115      0.007147
  C       1.420381     -0.367502     -0.756654
  C      -0.233215      1.173254      0.210389
  C       0.841969      0.937448     -0.681761
  N      -0.526591      2.493844      0.522500
  C      -0.060730      3.495040     -0.260630
  C       0.796055      3.266294     -1.316212
  C       1.322651      1.998479     -1.460833
  C      -3.678327      1.308729     -0.297373
  O      -3.109216      0.906353     -1.296842
  N      -4.853796      1.955544     -0.263232
  C      -5.511054      2.274824     -1.527269
  C      -5.660704      2.163744      0.936418
  H      -5.125989      1.835781      1.819024
  H      -6.591219      1.597664      0.849532
  H      -5.907892      3.221852      1.034659
  H      -6.263215      1.521081     -1.774777
  H      -4.775782      2.321408     -2.324024
  H      -6.003284      3.242290     -1.429870
  H      -0.356627     -3.264908      1.366857
  H      -3.926592     -0.985867      2.024331
  H      -2.632456     -3.089927      2.327074
  H       1.406760     -2.345344      0.010414
  H       2.272616     -0.511919     -1.407500
  H      -0.346475      4.495271      0.028347
  H       1.114703      4.094029     -1.931923
  H       2.112068      1.807357     -2.177008
  P      -0.832500      3.033393      2.236936
  O      -1.349464      1.947250      3.065016
  O      -1.635961      4.352251      2.042156
  O       0.572186      3.626682      2.601306
  C      -3.109224      4.444994      2.030853
  C       1.651875      2.798608      3.173086
  C      -3.485798      5.828206      2.496466
  H      -3.500344      3.671126      2.686641
  H      -3.425581      4.257841      1.007199
  H      -3.148323      6.003309      3.518253
  H      -4.573229      5.920302      2.470430
  H      -3.060941      6.590768      1.842977
  C       2.736863      3.730890      3.649492
  H       2.007108      2.130599      2.389349
  H       1.228043      2.214242      3.987274
  H       3.136055      4.321857      2.824681
  H       3.548537      3.135970      4.072194
  H       2.363222      4.402831      4.422747
52
Coordinates from ORCA-job HBQ-DCP_GS E -1604.008223152111
  C      -2.889736     -1.040991      1.722585
  C      -2.164663     -2.230676      1.864821
  C      -0.892789     -2.324474      1.349320
  C      -2.302797      0.067397      1.161062
  C      -0.949378      0.052650      0.749993
  O      -3.113207      1.181029      0.968000
  C      -0.286250     -1.211812      0.739194
  C       0.932838     -1.372029      0.007299
  C       1.420130     -0.367442     -0.756461
  C      -0.233329      1.173428      0.210596
  C       0.841870      0.937572     -0.681518
  N      -0.526496      2.494029      0.522900
  C      -0.060481      3.495236     -0.260121
  C       0.796275      3.266489     -1.315732
  C       1.322710      1.998621     -1.460470
  C      -3.678408      1.308802     -0.297866
  O      -3.109196      0.906145     -1.297163
  N      -4.853976      1.955491     -0.264017
  C      -5.511243      2.274191     -1.528194
  C      -5.661128      2.163666      0.935479
  H      -5.126468      1.835978      1.818221
  H      -6.591479      1.597327      0.848529
  H      -5.908606      3.221725      1.033517
  H      -6.263523      1.520416     -1.775244
  H      -4.775992      2.320212     -2.324999
  H      -6.003325      3.241787     -1.431311
  H      -0.357177     -3.264714      1.367045
  H      -3.927050     -0.985452      2.024183
  H      -2.633031     -3.089521      2.327183
  H       1.406300     -2.345301      0.010536
  H       2.272373     -0.511953     -1.407275
  H      -0.346034      4.495490      0.028966
  H       1.115045      4.094259     -1.931331
  H       2.112142      1.807452     -2.176620
  P      -0.832118      3.033343      2.237426
  O      -1.348682      1.947020      3.065514
  O      -1.635856      4.352063      2.042995
  O       0.572544      3.626828      2.601572
  C      -3.109111      4.444588      2.031775
  C       1.652411      2.798908      3.173163
  C      -3.485870      5.827770      2.497350
  H      -3.500087      3.670706      2.687637
  H      -3.425539      4.257337      1.008159
  H      -3.148376      6.002952      3.519118
  H      -4.573311      5.919715      2.471335
  H      -3.061124      6.590361      1.843820
  C       2.737819      3.731247      3.648496
  H       2.007142      2.130358      2.389653
  H       1.228930      2.215042      3.987893
  H       3.136701      4.321694      2.823162
  H       3.549588      3.136400      4.071115
  H       2.364706      4.403700      4.421564
