! B3LYP/G Def2-TZVP(-f) ESD(FLUOR) CPCM(Water)
%tddft
  nroots 3
  iroot 1
end

%esd
  GSHESSIAN "hbq-dcp-gs.hess"
  ESHESSIAN "hbq-dcp-es.hess"
  DOHT TRUE
  LINES VOIGT
  LINEW 50
  INLINEW 200
  UNIT NM
end

%output
  print[p_mos] true
  print[p_basis] 5
end

* xyz 1 1
  C          -3.39372747611929     -0.95729625248511      1.56812261608905
  C          -3.20001280144323     -1.86857614845646      2.61171383421659
  C          -2.00518386172462     -1.91081888488698      3.29091402329822
  C          -2.42148398886068     -0.02592798085016      1.27197678872168
  C          -1.21516844870881      0.03837790722788      2.02422258056582
  O          -2.46936131313904      0.76693256127735      0.15264653406412
  C          -0.98013259494333     -1.00447490869127      2.97320626537826
  C           0.32734247471847     -1.20069309055694      3.51815369598493
  C           1.38000242619494     -0.48080191119087      3.07125116413179
  C          -0.14749189809076      0.97691150258363      1.80396134201334
  C           1.17211879275768      0.62274373874607      2.18851035838662
  N          -0.31472283174085      2.23153095876160      1.22926393936065
  C           0.74809874845947      2.91204545648278      0.73879820438078
  C           2.04111254762388      2.46415958852593      0.88990221452281
  C           2.25350864313156      1.36652642175767      1.69911465742892
  C          -3.66402984487852      1.04736671030711     -0.50813888255492
  O          -4.71829277619833      1.18101375479242      0.08477605478106
  N          -3.46612339321415      1.18842416552688     -1.82643908843191
  C          -2.19925178873267      0.96363687784641     -2.51743045007481
  C          -4.57233648827084      1.62826084960420     -2.67020517529245
  H          -4.82906083113717      0.84317659552603     -3.38433719558639
  H          -4.27517249217023      2.52071282276570     -3.22393417338640
  H          -5.43602412295938      1.85436116530920     -2.05482823699790
  H          -1.78407414008534      1.91360217588299     -2.86129669809883
  H          -2.38245941205030      0.32972977042778     -3.38635778213897
  H          -1.48590907107490      0.47435336621962     -1.86586379761161
  H          -1.81886847724135     -2.66927843847170      4.03974920425621
  H          -4.29573802132598     -0.99954551547310      0.97910011948084
  H          -3.98297050476585     -2.57993549574178      2.84006043223629
  H           0.46671357606647     -2.00102823155396      4.23328000156353
  H           2.39164873808024     -0.69744127257970      3.38778332172327
  H           0.53319300076600      3.86106649593001      0.27196871572310
  H           2.85455683268805      3.02877684311516      0.45975560170927
  H           3.25894308665957      1.06239582254678      1.96170920724039
  P          -1.72448324636349      3.28837053658482      1.59828578998173
  O          -2.69752934214187      2.61029361097000      2.45337971563584
  O          -2.07083578496926      3.72370044746070      0.13961576210135
  O          -1.03915613481770      4.55898582614616      2.21727819224496
  C          -2.96515214602546      4.86765328572643     -0.14996150370339
  C          -0.99093325690349      4.83983159960935      3.66507872878258
  C          -2.69265919168587      5.32226755948171     -1.56061805778598
  H          -2.75829686659797      5.65219172218025      0.57566411792881
  H          -3.98432823765226      4.50849597955922     -0.02185655116628
  H          -1.66535384076841      5.67139333160501     -1.66784525159997
  H          -3.36503057973853      6.14945426918479     -1.79592227127568
  H          -2.87423388014409      4.51793833553699     -2.27365285188030
  C           0.40740576028355      4.63552490725451      4.19600558146600
  H          -1.71923395578876      4.20202550082036      4.16074330704236
  H          -1.30870712293492      5.87689056089251      3.74567404495711
  H           0.42288732189943      4.91455565364168      5.25157520016502
  H           1.12402572737852      5.26267053910208      3.66480446815761
  H           0.71566246139276      3.59252893007369      4.11349218205414
*
