! B3LYP/G OPT FREQ 6-311G* CPCM(Water)

* xyz 1 1 
  C          -3.40756108622994     -0.90361865722193      1.60327904968085
  C          -3.19821225943522     -1.83450547925237      2.63130763285195
  C          -1.98466226510484     -1.90503278029824      3.28154346729655
  C          -2.42333845061049      0.01457824338066      1.29005827237493
  C          -1.19936757155888      0.05520283726985      2.02076560078017
  O          -2.47663662531651      0.82991080481411      0.18650462025184
  C          -0.95351874434225     -1.00431734859382      2.95335943293040
  C           0.36637010906612     -1.21435297604073      3.47117602782602
  C           1.41631697273791     -0.48809677896098      3.01715820446006
  C          -0.13026476082509      0.99254882724486      1.79143553982929
  C           1.19791804525833      0.63182218427641      2.15219240336710
  N          -0.30601328269524      2.25591449992496      1.23101647415417
  C           0.75115215739213      2.94891719720929      0.73652982169074
  C           2.04961912292405      2.50069068858077      0.86943455955568
  C           2.27437692682911      1.38777328532069      1.66031277110544
  C          -3.66975834110415      1.08660527191777     -0.49758130351167
  O          -4.73064517398802      1.20939228896719      0.08169825894630
  N          -3.45159397694516      1.21603097188079     -1.81718059439730
  C          -2.17396222787499      0.99057621070863     -2.49098727148943
  C          -4.57120212316844      1.56649506535290     -2.68770211853751
  H          -4.80516752955704      0.73008334512469     -3.35228625741680
  H          -4.30464507514702      2.43298960410646     -3.29723387928611
  H          -5.44337410226905      1.80228307161643     -2.08594462349942
  H          -1.84879795855512      1.91128116947017     -2.98232231904376
  H          -2.29721676931890      0.21524813756840     -3.25179406677888
  H          -1.41593267920672      0.67708435076357     -1.78285461473655
  H          -1.79252803788510     -2.67883785806258      4.01614018529830
  H          -4.33077234934992     -0.92052607226308      1.04352762220476
  H          -3.98798120102476     -2.53767540775410      2.87135481733683
  H           0.51776121813636     -2.02694553656123      4.17303729350299
  H           2.43349440938564     -0.71351125195105      3.31632344195623
  H           0.52732087734844      3.90236585548503      0.28061197141739
  H           2.85849823375027      3.07466885055600      0.43818600731216
  H           3.28586355945065      1.08212811954001      1.90452655630436
  P          -1.73381202320118      3.30318539096715      1.61519328834131
  O          -2.70309582852334      2.61901587635980      2.48690818148456
  O          -2.08687907563674      3.74954791492584      0.14732659267625
  O          -1.03999030705843      4.58758159753770      2.23263136542275
  C          -2.92397434602976      4.93329717080000     -0.15492611910150
  C          -0.99789854565239      4.90254512424577      3.67386380096243
  C          -2.73069015476476      5.26467184978821     -1.61416134100989
  H          -2.60365530348096      5.74629282159323      0.49566130085462
  H          -3.95362160304776      4.66168812960867      0.07630015793870
  H          -1.69056145175893      5.52200673086413     -1.82396729864095
  H          -3.35578044350586      6.12486278445281     -1.86767190132723
  H          -3.02589557867050      4.42792450822628     -2.24958228924615
  C           0.31138660817691      4.45965775185088      4.28775150254919
  H          -1.85911509567056      4.43589900581947      4.15010158515223
  H          -1.11716961926804      5.98391515523402      3.70318018215518
  H           0.33813688904558      4.78171371103359      5.33237462925645
  H           1.16022068903677      4.91113923452996      3.77020919070068
  H           0.42054612193655      3.37294452409862      4.26606418828361
*
