52
Coordinates from ORCA-job hbq-dcp-es E -1603.281504650424
  C          -4.78809271599187      0.28464229767271      0.47540285125131
  C          -5.37561797933549     -0.56526888811183      1.39142398305901
  C          -4.57863120408850     -1.14054621053537      2.36482208344170
  C          -3.42835739143292      0.60951105481588      0.55545945868505
  C          -2.62760048033001      0.17633456117175      1.63163857009046
  O          -2.96366304338828      1.34200382593592     -0.47856444480476
  C          -3.21275557326861     -0.80930289327225      2.47975191030638
  C          -2.41429071035781     -1.46525589398922      3.42773738163981
  C          -1.06577270991113     -1.20195449414900      3.50893309875441
  C          -1.31159327535939      0.59829804876389      1.90275905456771
  C          -0.47287157696380     -0.18470065067859      2.73418531650381
  N          -0.77382729906759      1.78635607243675      1.37153672543266
  C           0.61508961917322      1.84060166781328      1.21345376612765
  C           1.44103879975106      0.99271966564485      1.87440367944799
  C           0.91014120420899      0.03450109399020      2.74443187688339
  C          -1.89723008267343      0.88423221831518     -1.25326625494580
  O          -1.33061256061348     -0.15268703302641     -0.99867502668420
  N          -1.64366020236802      1.71974889582130     -2.25792102556114
  C          -2.45513138097695      2.87444384045603     -2.60960395686024
  C          -0.60681374344511      1.36389400707164     -3.21270997546346
  H          -1.05405151873960      1.00588664423983     -4.14193531460392
  H           0.02650410207558      0.58911583188572     -2.79618079388082
  H          -0.00814057676894      2.24762523029455     -3.42837512201557
  H          -1.79610974326251      3.72058127087538     -2.79836750140216
  H          -3.13456015633006      3.13079047326045     -1.80814696145096
  H          -3.02311632252129      2.66275278400067     -3.51727612297250
  H          -4.99278588019119     -1.85734465786179      3.06104148013124
  H          -5.34986757131776      0.69051821412830     -0.35462987187847
  H          -6.42463832535460     -0.81067444948370      1.31776298548130
  H          -2.86066934414483     -2.21937775208825      4.06178224970890
  H          -0.44102543450562     -1.76905415653622      4.18609093028309
  H           0.97721116886375      2.63086672921213      0.57342510278565
  H           2.50780680922853      1.09200025216495      1.73607703514191
  H           1.54445488545025     -0.56886761107880      3.37643103539468
  P          -1.56151923683024      3.30105253075751      1.56141850489745
  O          -2.96866661628248      3.14218197953806      1.92799297313939
  O          -1.18431090463579      3.94758073164398      0.19228498752171
  O          -0.69374119338366      4.12465581965446      2.58136953765462
  C          -1.29761254880494      5.37940190925439     -0.06292248390880
  C          -1.04175173089109      4.27562876160409      3.98724077458463
  C          -0.07542385773059      5.82759410178577     -0.81590024863143
  H          -1.39712379911966      5.90414725391429      0.88526239883229
  H          -2.20734023928461      5.51644161712433     -0.64315097758173
  H           0.82311861363136      5.68486429692637     -0.21633686508730
  H          -0.16957217684584      6.88779096933478     -1.05256881983364
  H           0.02897349006772      5.27402228797696     -1.74878162256915
  C          -0.18152743457596      3.38707582216188      4.84587247794434
  H          -2.10070455192820      4.05792037660034      4.10700885527729
  H          -0.87190289546663      5.32746085898394      4.20433061954959
  H           0.87529918219401      3.60391637257663      4.69336317362246
  H          -0.36130189921930      2.33431185605076      4.62901518398033
  H          -0.42196199836843      3.56662248100702      5.89445332291132
