! B3LYP/G OPT FREQ 6-311G* CPCM(Water)

* xyz 1 1 
C  -3.49414694950469950641 -0.53534191809082165570 1.90071000668259726396
C  -3.35374755829604254131 -1.31878600318279293191 3.04710185850437875743
C  -2.13274417099043489543 -1.44988857731619424918 3.66079511027437076720
C  -2.42893003288651598837 0.19822519205263974817 1.42897269135435345255
C  -1.18662926180218586403 0.17275894044015985274 2.11050106247039037655
O  -2.42177780400034103891 0.85821420282239291311 0.22389232508410100708
C  -1.02146436880171798123 -0.74209069540318328695 3.18365716550044286492
C  0.28248874100098941842 -0.97776885451638018143 3.70981327867297094869
C  1.37793800211502603936 -0.41853000249798760768 3.14459394379684287202
C  -0.06201743997598262864 0.94649708860604975236 1.70555006648514395629
C  1.24130211648043564665 0.55677959482278727155 2.11610767213666406406
N  -0.19101556616996528959 2.06727830721119820723 0.94479840164835571237
C  0.87264100473383521273 2.62582745476582735122 0.35217270046584508991
C  2.15102212170543438674 2.15269546492971164398 0.55887594966926490425
C  2.34544469712765746294 1.17043450991138686668 1.51382902780499728479
C  -3.57282639123422773864 1.21274734009732854112 -0.44468443430036785902
O  -4.62698944869634942734 1.44376175130044792638 0.12511507123483006643
N  -3.37072000657940140655 1.30000951862791280789 -1.75563859793361198847
C  -2.09924891259674550881 1.04281176977273792872 -2.39891668373896393973
C  -4.41706882925341126622 1.81165985386577998995 -2.61439778224335483969
H  -4.07600935727716695567 2.71716903815111443521 -3.11532206873869998986
H  -5.29503203941215527806 2.03677947114048407684 -2.01293539881738281494
H  -4.67875381161369041649 1.06353945593897325494 -3.36292416224484824738
H  -2.29526614923541938396 0.60753457433642077401 -3.37692443798560359980
H  -1.51084963455095233620 0.34730847439374695762 -1.80776168056543951046
H  -1.54281185774588580628 1.97237259117052809998 -2.52202901918526656289
H  -2.01130211356500421260 -2.11507175052149198891 4.50044363588308993229
H  -4.43914216827280316835 -0.50356926525230971681 1.38289952002596239211
H  -4.21193474974572001912 -1.85848337945265074111 3.41428935575267855640
H  0.37470505324360969812 -1.67072883929759763433 4.53087931473702454355
H  2.37165889026603116108 -0.67445878554148108730 3.47424725814248658295
H  0.66753464217273694725 3.49024543654863661502 -0.26124367077787657987
H  2.97969060797124329909 2.60136180227165780821 0.03718331335072636024
H  3.33984664743914816398 0.87133079049079875666 1.80688307993985941557
P  -1.55842791880170383756 3.16348658793514436738 1.17105586248750470624
O  -2.52261398919854817890 2.74476641582679947717 2.19011306646340697668
O  -1.94233611447705012409 3.41882853930654517782 -0.32722419125557000719
O  -0.79484877901051420590 4.50043756149723339632 1.56406723003042125164
C  -2.51646345192476106334 4.65996459419848019223 -0.77811079053213039192
C  -0.67647035044830428063 4.89483883157696997301 2.93501166797719603707
C  -3.80821522740905438198 4.98233392845065115040 -0.05539192151942049641
H  -2.69067103026699205870 4.50351588144346859366 -1.84379287735435903883
H  -1.78790159461462994095 5.46038643110159505056 -0.63171825946130677476
H  -4.50683157887587970691 4.15042875286627133136 -0.13139128703917901664
H  -4.26305186505629940541 5.86944544930948541861 -0.48558043521284988131
H  -3.61361622684915495540 5.15795542635471537807 1.00201182695035662107
C  0.40037243921593013152 4.10555429443943431522 3.65469580088561407649
H  -1.64350691485886124532 4.75529021414604446960 3.42728324795627603550
H  -0.43391328080600616302 5.95824140166928106765 2.89849817667505282870
H  1.34106808366003615873 4.16701386118276317916 3.11385987100210259726
H  0.09914551904199067622 3.06363381304833204410 3.74848822682565341324
H  0.53812835132303427077 4.51631347381518288842 4.65044090693299150274
*

