52
Coordinates from ORCA-job 1globalminimum E -1603.818077584379
  C          -3.55538062799058     -0.73287023218308      1.79774237675198
  C          -3.40291484973898     -1.56676651276492      2.91544012157322
  C          -2.18664824062805     -1.67100571811922      3.55564856624847
  C          -2.50580041087577      0.06340699089332      1.38083219786095
  C          -1.26760948419505      0.07541260359597      2.08820251584057
  O          -2.51186356664340      0.76450150357687      0.19938349876196
  C          -1.09108362482712     -0.89954441231842      3.12273272501041
  C           0.21748816612952     -1.16808709222299      3.64232351357330
  C           1.31447528121363     -0.58622637737975      3.10001076463276
  C          -0.12836963016107      0.88868530296442      1.74751588749718
  C           1.17224768798101      0.45256289085343      2.12507128934452
  N          -0.20855365308698      2.09620170778947      1.05776130400903
  C           0.89143399433214      2.63797145989147      0.47779423571059
  C           2.15025258401463      2.09464090526038      0.63852667661848
  C           2.29775763297959      1.05484415823779      1.53923039285154
  C          -3.68658037484472      1.07727220258832     -0.48964103852895
  O          -4.73519176445585      1.29838840995355      0.08370043320374
  N          -3.46756545798135      1.12192358118397     -1.81521906326765
  C          -2.17991290840999      0.87810853229376     -2.46320262492632
  C          -4.54129038676559      1.58617139937489     -2.69050115486990
  H          -4.29925974364477      2.57166608459174     -3.09958394015634
  H          -5.46920993206446      1.64776030942974     -2.13053136738705
  H          -4.66337854773351      0.88383586951299     -3.51764106818776
  H          -2.34099526461651      0.24095833645334     -3.33521007368277
  H          -1.49573963762896      0.38237542909884     -1.78399290864314
  H          -1.73646608121959      1.82082959489205     -2.79675787480248
  H          -2.04403414447433     -2.37784785596703      4.36515709452614
  H          -4.48686541379228     -0.73008072649989      1.25203555745862
  H          -4.24272144124275     -2.17296978163850      3.23637858078520
  H           0.31569317895477     -1.91458850055278      4.42264193501995
  H           2.31531254016648     -0.86762306981750      3.40666286377625
  H           0.73994910896744      3.55512183529139     -0.07249040766782
  H           2.99458393274940      2.54788918371453      0.13704711650822
  H           3.28459192331273      0.68739606267281      1.79886471287526
  P          -1.53781497583190      3.30152859427516      1.33786335498000
  O          -2.51086313109515      2.79973630837924      2.32200319996891
  O          -1.93521902009784      3.58195493096299     -0.15757198688591
  O          -0.72616610331523      4.59518718632891      1.75709739216794
  C          -2.42767286971470      4.87660387619318     -0.67802564170080
  C          -0.60094239765286      5.09539972095626      3.14083892328360
  C          -3.80553131986168      5.21648201488834     -0.15467734860329
  H          -2.42697963699163      4.71874105853328     -1.75382616337002
  H          -1.68633475119285      5.63282861337465     -0.42413504617732
  H          -4.51188725972231      4.40794159694700     -0.35078531155369
  H          -4.16129295485093      6.11543356935880     -0.66533795189754
  H          -3.79437199081286      5.42410271390071      0.91781783237384
  C           0.75028121876582      4.73839155284566      3.71853758550334
  H          -1.42394718731884      4.68845601624347      3.72648532039927
  H          -0.73187058589122      6.17112623237544      3.04010976782747
  H           1.55909045438150      5.13361802825722      3.10058009348315
  H           0.87319142672957      3.65726722788904      3.81471658918890
  H           0.83567021338604      5.17994669440377      4.71522654759168
