52
Coordinates from ORCA-job hbq-dcp-es E -1603.917007133492
  C          -4.79416390024997      0.32457179713641      0.45253571812337
  C          -5.40031804365807     -0.52947633780243      1.36869927694112
  C          -4.61576435841390     -1.11394107109771      2.33602174759695
  C          -3.42486780671376      0.63375265269301      0.54011611054592
  C          -2.63120437390814      0.20124837947628      1.62507977554148
  O          -2.94885820749584      1.34514721854177     -0.51260682553782
  C          -3.22466884201517     -0.78914412433828      2.46091582866774
  C          -2.43535710123418     -1.47676354102630      3.39694659912620
  C          -1.08320794362482     -1.22351589492424      3.47715347147188
  C          -1.29075237285404      0.61162349945908      1.90634888355101
  C          -0.48011340669917     -0.17493832486186      2.73032677259779
  N          -0.73387197381114      1.79947108167409      1.35113743690981
  C           0.66285130442580      1.83751936582884      1.21958499730085
  C           1.47495864171405      0.98384230404996      1.91606077648715
  C           0.92564918819528      0.03818453600732      2.77797704748778
  C          -1.89358961969065      0.84227672978631     -1.29218121336594
  O          -1.33844007941575     -0.19990946336165     -1.02185070290893
  N          -1.64192116493995      1.65364095558122     -2.32892304303016
  C          -2.45189863113781      2.80786960114812     -2.71079745760533
  C          -0.62441559820373      1.24643624216987     -3.29376856004261
  H          -1.09438857212549      0.81744884953814     -4.18239815926106
  H           0.03572336588086      0.51203425748233     -2.84508196863883
  H          -0.05196399876020      2.12524892101716     -3.58859798852652
  H          -1.78840421423576      3.64794643150689     -2.91525034751938
  H          -3.13717703545934      3.08154430383694     -1.91946839934395
  H          -3.01285931404602      2.57632292169802     -3.61928180978660
  H          -5.03314752554478     -1.82989232680176      3.03158508270853
  H          -5.34693695264508      0.73528194507678     -0.38148059565839
  H          -6.45279124535440     -0.75979742235485      1.28807493290802
  H          -2.88843243217311     -2.23837425625371      4.01729355167608
  H          -0.45872871411714     -1.81159851704950      4.13750111787372
  H           1.04816740448771      2.62476227706137      0.59032027363567
  H           2.54565732378350      1.08047358001714      1.79991362167435
  H           1.54047435677091     -0.57307165412432      3.42150895351552
  P          -1.49929227512581      3.33201697048384      1.59776307457224
  O          -2.93315588308260      3.19787978372919      1.89350141525399
  O          -1.04764149833508      4.04207251784953      0.26918474496999
  O          -0.65245396105912      4.08969681470721      2.70007068008639
  C          -1.22225385199633      5.48796018359212      0.06817196138909
  C          -1.06626463735039      4.19457398164975      4.10319453522404
  C          -0.18986320140004      5.95672642959546     -0.92716003193769
  H          -1.10705691820323      5.99024099311896      1.02756720553761
  H          -2.23735332933745      5.63691606559782     -0.29687347919333
  H           0.81974888586111      5.79916948521069     -0.54619810258663
  H          -0.32933894304067      7.02491054941545     -1.10372546802138
  H          -0.29648262855692      5.43483917901811     -1.87852173538939
  C          -0.14412064393152      3.38721756814325      4.98617101544678
  H          -2.10137019340368      3.86914605101289      4.18689030777644
  H          -1.01118380020599      5.25743796509589      4.33194606239705
  H           0.89087536027693      3.71118051210551      4.87047252902782
  H          -0.20935594451824      2.32276766180235      4.75848265049605
  H          -0.43498869332157      3.53408037108140      6.02849772983545
