! B3LYP/G VERYTIGHTOPT FREQ Def2-TZVP(-f) TightSCF CPCM(Water)
%tddft
    NRoots 3
    IRoot 1
end 

* xyz 1 1 
  C     -4.794314    0.324739    0.452676
  C     -5.400451   -0.529215    1.368949
  C     -4.615858   -1.113716    2.336225
  C     -3.424989    0.633801    0.540123
  C     -2.631283    0.201311    1.625052
  O     -2.948943    1.345047   -0.512676
  C     -3.224722   -0.789018    2.460978
  C     -2.435341   -1.476647    3.396948
  C     -1.083168   -1.223464    3.476997
  C     -1.290817    0.611651    1.906199
  C     -0.480115   -0.174914    2.730098
  N     -0.734003    1.799462    1.350888
  C      0.662692    1.837528    1.219208
  C      1.474874    0.983837    1.915584
  C      0.925660    0.038180    2.777569
  C     -1.893675    0.841997   -1.292133
  O     -1.338851   -0.200374   -1.021824
  N     -1.641609    1.653386   -2.328747
  C     -2.451200    2.807876   -2.710621
  C     -0.624058    1.245995   -3.293469
  H     -1.094005    0.817195   -4.182200
  H      0.035828    0.511393   -2.844739
  H     -0.051342    2.124683   -3.588148
  H     -1.787448    3.647804   -2.914831
  H     -3.136550    3.081628   -1.919387
  H     -3.012046    2.576598   -3.619243
  H     -5.033244   -1.829598    3.031865
  H     -5.347129    0.735447   -0.381313
  H     -6.452953   -0.759446    1.288438
  H     -2.888388   -2.238212    4.017377
  H     -0.458642   -1.811566    4.137284
  H      1.047946    2.624770    0.589909
  H      2.545563    1.080461    1.799312
  H      1.540558   -0.573101    3.421013
  P     -1.499399    3.331994    1.597641
  O     -2.933259    3.197845    1.893396
  O     -1.047777    4.042174    0.269124
  O     -0.652556    4.089628    2.699985
  C     -1.222621    5.488053    0.068226
  C     -1.066301    4.194370    4.103143
  C     -0.190223    5.957113   -0.926959
  H     -1.107587    5.990262    1.027679
  H     -2.237714    5.636871   -0.296893
  H      0.819382    5.799711   -0.545914
  H     -0.329895    7.025291   -1.103415
  H     -0.296643    5.435312   -1.878387
  C     -0.144001    3.387110    4.986039
  H     -2.101358    3.868800    4.186874
  H     -1.011345    5.257230    4.331943
  H      0.890940    3.711242    4.870324
  H     -0.209076    2.322665    4.758301
  H     -0.434858    3.533869    6.028382
*

