! B3LYP/G OPT Def2-TZVP(-f) Def2-TZVP/C Def2/J RIJCOSX TightSCF CPCM(Water) AllPop SOSCF

* xyz 1 1
   C       -6.61196       -1.55331        0.01410
   C       -6.58484       -2.70820       -0.99969
   C       -5.50831       -3.72272       -0.58293
   H       -6.35872       -2.31644       -1.99487
   H       -7.56288       -3.19257       -1.04605
   C       -4.17166       -3.04365       -0.31329
   H       -5.40091       -4.47283       -1.37018
   H       -5.83208       -4.24293        0.32172
   C       -4.11836       -1.67807        0.03070
   N       -5.28372       -0.93194        0.13089
   H       -6.91823       -1.93414        0.99262
   H       -7.34576       -0.81177       -0.31437
   C       -5.27070        0.43200        0.68370
   C       -4.01646        1.19138        0.22106
   H       -5.28092        0.37768        1.77617
   H       -6.15755        0.98149        0.35580
   C       -2.76186        0.40491        0.63166
   H       -3.99427        2.19045        0.66223
   H       -4.03933        1.30669       -0.86559
   C       -2.87311       -1.06749        0.25490
   H       -2.62049        0.48208        1.71220
   H       -1.88802        0.85577        0.15536
   C       -3.00860       -3.81759       -0.39134
   C       -1.67126       -1.85098        0.13120
   C       -1.75710       -3.25432       -0.15836
   O       -0.46373       -1.30976        0.52903
   C        0.73254       -1.94084        0.45477
   C       -0.59433       -4.01289       -0.20925
   C        0.66012       -3.35536        0.04479
   O        1.76235       -1.35664        0.72305
   C        1.83486       -4.17111       -0.12281
   C        2.71876       -4.40778        0.93493
   C        2.17534       -4.72730       -1.37131
   N        3.11574       -5.33885       -1.45327
   C        3.93981       -5.60628       -0.73561
   C        3.84181       -5.16624        0.59704
   H        1.55065       -4.56935       -2.24917
   H        4.61338       -5.39405        1.32845
   H        4.79870       -6.18629       -1.06974
   H        2.56182       -4.00980        1.93461
   H       -3.08457       -4.87571       -0.63169
   H       -0.64521       -5.07827       -0.42170
   H        3.10523       -6.00136       -2.22685
*

