! B3LYP/G VERYTIGHTOPT FREQ Def2-TZVP(-f) Def2-TZVP/C Def2/J RIJCOSX TightSCF CPCM(Water) AllPop SOSCF
%maxcore 3000
%tddft
    NRoots 3
    IRoot 1
end 

* xyz 1 1 
  C   -2.81495577109361     -1.24265619472307      1.88864724827788
  C   -2.02934298625347     -2.38345905690701      2.02207062107135
  C   -0.79088867335387     -2.39729070488215      1.42347147821046
  C   -2.33965438600524     -0.10460572944003      1.21125410760483
  C   -1.00612505927987     -0.01267943695739      0.75675217414353
  O   -3.28618231625579      0.84427855372326      0.99838932340565
  C   -0.27566408669967     -1.23693560340762      0.75648339519675
  C   0.94382586749089     -1.32165011068491      0.06430579801618
  C   1.41257028065095     -0.23624659391652     -0.64268859918925
  C   -0.36843837826841      1.15642055384742      0.23540522854046
  C   0.76522091805294      1.02803665105956     -0.57231058108086
  N   -0.85721494799805      2.46877575206714      0.51881347517812
  C   -0.53427913458361      3.46203689870436     -0.42198145858402
  C   0.48129368615875      3.30256581121200     -1.32593307452638
  C   1.23338649646528      2.13057077961481     -1.33899251636296
  C   -3.60344078885142      1.25004186506046     -0.30700388004437
  O   -2.94615943301553      0.91062655620036     -1.26565262191570
  N   -4.70098220658952      2.02274275995004     -0.31067921171496
  C   -5.19718322812253      2.50050287711381     -1.59861481428530
  C   -5.60664817028257      2.20583697545412      0.82187881000023
  H   -5.15891026126181      1.84802604826059      1.73984268819437
  H   -6.53755322665715      1.66565425174116      0.63366511311773
  H   -5.83524398442403      3.26707377668998      0.92240309494244
  H   -5.99556033793981      1.84999067572288     -1.96515580486180
  H   -4.38843913685075      2.51955663057075     -2.32143705579539
  H   -5.59580486170505      3.50518362473434     -1.46429050666731
  H   -0.17243622443406     -3.28501348206993      1.44664369554943
  H   -3.83301426982645     -1.21801549989359      2.25337087333790
  H   -2.40957519089801     -3.25152750394252      2.54094989423929
  H   1.48277493294460     -2.25953575054828      0.05205669319412
  H   2.30681470629950     -0.32480305241665     -1.24659035745628
  H   -1.08947447629071      4.38256594793816     -0.33428646636619
  H   0.70063823130131      4.11564600045843     -2.00436964742237
  H   2.11206687812117      2.02165156047933     -1.95702956854812
  P   -0.88251185367696      3.01248622666559      2.17608140688956
  O   -1.39906395108393      1.97487750667043      3.07891403500438
  O   -1.62467421818954      4.39496564354727      2.09922865391097
  O   0.57725808193415      3.54264190244787      2.47387447185200
  C   -3.08776260272363      4.51418731804637      2.08696532948394
  C   1.59929239651325      2.68862269875342      3.09101248555447
  C   -3.44601223245917      5.89839528292917      2.56838758918703
  H   -3.50086861153149      3.74253194685890      2.73412873831175
  H   -3.41729043571738      4.34513433932552      1.06286621810926
  H   -3.10523070509075      6.05601558406244      3.59217799763127
  H   -4.53148151656009      6.01081600121846      2.54397611688254
  H   -3.00676939271505      6.66172764414701      1.92511149249008
  C   2.74978156059016      3.57126983197793      3.50885936712074
  H   1.91108403154573      1.94818553717602      2.35489625340630
  H   1.14947400990105      2.18126613279225      3.94266618107361
  H   3.18164249157330      4.08535903899504      2.64946138700097
  H   3.52427997198430      2.95087880527144      3.96373311823555
  H   2.42712251516172      4.31233272830150      4.24112161045610
*