! B3LYP/G VERYTIGHTOPT FREQ Def2-TZVP(-f) Def2-TZVP/C Def2/J RIJCOSX TightSCF CPCM(Water) AllPop SOSCF

%tddft
    NRoots 3
    IRoot 1
end 

* xyz 0 1 
  C          -3.31556253022893     -1.10750301527353     -0.25721246040825
  C          -2.76124871075397     -2.05539866418624     -1.12182282332210
  C          -1.42259013564319     -1.93593221100551     -1.47828552712168
  C          -2.53706165613196     -0.05880249233071      0.26082042661334
  C          -1.13116107484438      0.04412820239424      0.01078746760883
  O          -3.24343369143120      0.81289843577240      1.03343842785771
  C          -0.59584954853532     -0.90948874799449     -0.94336251561563
  C           0.75538550759268     -0.83462410764932     -1.30912656724823
  C           1.59425816999286      0.12918839465067     -0.74708960276067
  C          -0.24326071034836      0.95284754585047      0.67977417673203
  C           1.14000947137062      1.01341218538831      0.25381605844034
  N          -0.70692701622798      1.73127303959690      1.69732925263623
  C           0.14018885364750      2.63344427875872      2.24270609106856
  C           1.46478241373504      2.80837841647632      1.85305981671050
  C           1.99103566812257      1.97467368605570      0.85827118072156
  C          -3.22135778767975      2.18403332573394      0.75831202938009
  O          -2.85981410796624      2.60857875944338     -0.31885899085051
  N          -3.77118170756285      2.88457441193909      1.76867508469286
  C          -4.01739216676766      2.34054973551222      3.10122716309423
  C          -3.85614178422194      4.33588856571949      1.63797108291690
  H          -3.03912275475901      4.82472393180385      2.17902656732153
  H          -4.80521286201387      4.67869671077051      2.05377235762054
  H          -3.80218990846560      4.61222062841991      0.58893399034641
  H          -3.19177527611926      2.58491078536515      3.77774275594525
  H          -4.13168379828869      1.26244043505082      3.05922931469206
  H          -4.93478277180919      2.78007736411646      3.49646578467145
  H          -0.97832031104183     -2.64475422314052     -2.16906024094913
  H          -4.36927705816516     -1.12382015138147     -0.00524316965085
  H          -3.37527826990262     -2.84753317007491     -1.53236867161053
  H           1.14791602553857     -1.53837109182497     -2.03505883459005
  H           2.62847424415011      0.19409767985463     -1.07087169748062
  H          -0.27167344480305      3.22972593998189      3.05333190415085
  H           2.07910611496579      3.55422805880488      2.34568690624500
  H           3.02930262192065      2.03906735926010      0.55236325646103
*
