! B3LYP/G OPT Def2-TZVP(-f) Def2-TZVP/C Def2/J RIJCOSX TightSCF CPCM(Water) AllPop SOSCF
%maxcore 3000

* xyz 0 1
   C       -3.69720       -0.60578        0.13683
   C       -3.67674       -1.97528        0.09112
   C       -2.45486       -2.66049        0.04319
   C       -1.23739       -1.98859        0.03914
   C       -1.19162       -0.55526        0.08420
   C       -2.48970        0.17900        0.13719
   O       -2.53253        1.40218        0.18070
   C        0.02749        0.08265        0.07706
   C        1.25971       -0.66230        0.02668
   C        1.17702       -2.08862       -0.01657
   C       -0.01664       -2.71554       -0.01059
   N        0.14882        1.45773        0.11687
   C        1.33128        2.09795        0.11156
   C        2.50436        1.41744        0.06554
   C        2.46659        0.00968        0.02187
   H       -0.70002        1.97700        0.15198
   H       -4.62154       -0.06036        0.17499
   H       -4.59418       -2.53225        0.09234
   H       -2.45166       -3.73348        0.00832
   H       -0.06195       -3.78839       -0.04396
   H        2.09170       -2.64927       -0.05425
   H        3.37908       -0.55382       -0.01548
   H        1.28063        3.16808        0.14606
   H        3.43201        1.95305        0.06249
*


