24
Coordinates from ORCA-job HBQ-Keto_GS E -631.021456133313
  C      -3.697200     -0.605780      0.136830
  C      -3.676740     -1.975280      0.091120
  C      -2.454860     -2.660490      0.043190
  C      -1.237390     -1.988590      0.039140
  C      -1.191620     -0.555260      0.084200
  C      -2.489700      0.179000      0.137190
  O      -2.532530      1.402180      0.180700
  C       0.027490      0.082650      0.077060
  C       1.259710     -0.662300      0.026680
  C       1.177020     -2.088620     -0.016570
  C      -0.016640     -2.715540     -0.010590
  N       0.148820      1.457730      0.116870
  C       1.331280      2.097950      0.111560
  C       2.504360      1.417440      0.065540
  C       2.466590      0.009680      0.021870
  H      -0.700020      1.977000      0.151980
  H      -4.621540     -0.060360      0.174990
  H      -4.594180     -2.532250      0.092340
  H      -2.451660     -3.733480      0.008320
  H      -0.061950     -3.788390     -0.043960
  H       2.091700     -2.649270     -0.054250
  H       3.379080     -0.553820     -0.015480
  H       1.280630      3.168080      0.146060
  H       3.432010      1.953050      0.062490
24
Coordinates from ORCA-job HBQ-Keto_GS E -631.028589970859
  C      -3.673017     -0.579841      0.136818
  C      -3.667852     -1.956713      0.092194
  C      -2.464170     -2.672563      0.043983
  C      -1.243696     -2.007001      0.038947
  C      -1.201901     -0.573919      0.083827
  C      -2.461184      0.192061      0.136445
  O      -2.465414      1.446466      0.176787
  C       0.034545      0.064399      0.076355
  C       1.266378     -0.669261      0.025885
  C       1.189541     -2.098606     -0.017857
  C      -0.008376     -2.731537     -0.011355
  N       0.130785      1.429868      0.117348
  C       1.300208      2.094205      0.112964
  C       2.491458      1.422449      0.065852
  C       2.469503      0.021433      0.021662
  H      -0.757752      1.933753      0.153734
  H      -4.599101     -0.019835      0.174553
  H      -4.604020     -2.501617      0.094262
  H      -2.475587     -3.754457      0.009575
  H      -0.049655     -3.813280     -0.045008
  H       2.114666     -2.659248     -0.056070
  H       3.397215     -0.534588     -0.015979
  H       1.229569      3.171540      0.148982
  H       3.420519      1.971618      0.063375
24
Coordinates from ORCA-job HBQ-Keto_GS E -631.031222832217
  C      -3.651337     -0.559776      0.136936
  C      -3.655483     -1.941590      0.092738
  C      -2.471087     -2.679655      0.043747
  C      -1.248031     -2.014374      0.038303
  C      -1.214581     -0.584240      0.082955
  C      -2.443866      0.197474      0.133893
  O      -2.434888      1.477777      0.177208
  C       0.047224      0.051518      0.075428
  C       1.272625     -0.675143      0.025519
  C       1.198094     -2.104453     -0.018404
  C      -0.002751     -2.735777     -0.011839
  N       0.125098      1.406156      0.116759
  C       1.278472      2.090809      0.113530
  C       2.484050      1.423924      0.066232
  C       2.473523      0.031869      0.022154
  H      -0.802015      1.874047      0.152731
  H      -4.578381      0.003652      0.175707
  H      -4.602696     -2.472267      0.096486
  H      -2.493826     -3.762931      0.010016
  H      -0.043796     -3.819421     -0.045412
  H       2.125104     -2.665673     -0.056555
  H       3.408857     -0.515896     -0.015120
  H       1.191678      3.168409      0.150039
  H       3.410673      1.980890      0.064229
24
Coordinates from ORCA-job HBQ-Keto_GS E -631.031643733048
  C      -3.643517     -0.552872      0.136614
  C      -3.651077     -1.936570      0.092708
  C      -2.473030     -2.679865      0.045215
  C      -1.246772     -2.013757      0.039706
  C      -1.215974     -0.586841      0.084507
  C      -2.436732      0.194579      0.137134
  O      -2.424389      1.483595      0.171604
  C       0.055367      0.047372      0.075839
  C       1.275427     -0.679186      0.024936
  C       1.200698     -2.108076     -0.018976
  C      -0.001471     -2.735064     -0.011292
  N       0.124964      1.401713      0.118260
  C       1.271333      2.091762      0.114576
  C       2.480494      1.424577      0.065657
  C       2.474966      0.035111      0.021044
  H      -0.823645      1.848124      0.155497
  H      -4.570881      0.008292      0.172727
  H      -4.601432     -2.460078      0.095086
  H      -2.499393     -3.761799      0.011223
  H      -0.045762     -3.817731     -0.044955
  H       2.125410     -2.671121     -0.057966
  H       3.411655     -0.508668     -0.017000
  H       1.181468      3.168120      0.151901
  H       3.404951      1.983713      0.063235
24
Coordinates from ORCA-job HBQ-Keto_GS E -631.031749388846
  C      -3.639348     -0.548112      0.138301
  C      -3.649167     -1.933452      0.092391
  C      -2.473750     -2.677872      0.040734
  C      -1.244163     -2.012184      0.035764
  C      -1.213452     -0.587914      0.080281
  C      -2.431392      0.191488      0.129824
  O      -2.413215      1.483113      0.190756
  C       0.061132      0.045363      0.073207
  C       1.277468     -0.682493      0.026016
  C       1.202318     -2.111283     -0.017709
  C      -0.001160     -2.734623     -0.012904
  N       0.123542      1.401862      0.112473
  C       1.266367      2.092962      0.111346
  C       2.477097      1.425060      0.067953
  C       2.475951      0.036553      0.025115
  H      -0.841926      1.830639      0.142960
  H      -4.567052      0.009892      0.181980
  H      -4.601158     -2.452294      0.099031
  H      -2.501866     -3.758894      0.007113
  H      -0.049030     -3.816498     -0.046057
  H       2.124876     -2.676387     -0.054284
  H       3.413564     -0.504381     -0.009678
  H       1.177194      3.168843      0.145442
  H       3.399828      1.985941      0.067224
24
Coordinates from ORCA-job HBQ-Keto_GS E -631.031811386033
  C      -3.638496     -0.545645      0.136174
  C      -3.648803     -1.932392      0.093940
  C      -2.473365     -2.675807      0.046306
  C      -1.241676     -2.010871      0.039684
  C      -1.209918     -0.587897      0.083833
  C      -2.428901      0.189145      0.134407
  O      -2.407585      1.482448      0.164439
  C       0.064063      0.045149      0.075740
  C       1.278484     -0.684069      0.024235
  C       1.202949     -2.112832     -0.019768
  C      -0.001307     -2.734499     -0.011389
  N       0.122375      1.403683      0.120053
  C       1.264527      2.093267      0.116060
  C       2.475235      1.425124      0.065561
  C       2.476558      0.036979      0.020128
  H      -0.853524      1.820711      0.159913
  H      -4.567295      0.009958      0.171375
  H      -4.601477     -2.449077      0.097351
  H      -2.501589     -3.756572      0.013174
  H      -0.051630     -3.816015     -0.044671
  H       2.124140     -2.679252     -0.058974
  H       3.414509     -0.502451     -0.018456
  H       1.178354      3.169084      0.154815
  H       3.397030      1.987160      0.063351
24
Coordinates from ORCA-job HBQ-Keto_GS E -631.031840737239
  C      -3.640111     -0.546922      0.137558
  C      -3.649460     -1.933452      0.092317
  C      -2.472952     -2.675641      0.044108
  C      -1.242156     -2.011033      0.038869
  C      -1.209799     -0.587016      0.083748
  C      -2.430912      0.190184      0.137160
  O      -2.410372      1.481826      0.177300
  C       0.062078      0.046463      0.074907
  C       1.277873     -0.682907      0.025136
  C       1.202468     -2.111609     -0.018681
  C      -0.001553     -2.734723     -0.011727
  N       0.122191      1.404811      0.116294
  C       1.266263      2.092581      0.113409
  C       2.476493      1.424500      0.066457
  C       2.476670      0.036115      0.022376
  H      -0.851505      1.825413      0.150733
  H      -4.569306      0.008679      0.175291
  H      -4.601646     -2.451742      0.095259
  H      -2.500199     -3.756882      0.009735
  H      -0.050806     -3.816609     -0.045319
  H       2.124461     -2.677545     -0.057095
  H       3.414475     -0.504410     -0.014536
  H       1.181627      3.169015      0.149351
  H       3.398839      1.986234      0.064630
24
Coordinates from ORCA-job HBQ-Keto_GS E -631.031846005735
  C      -3.639912     -0.546542      0.137066
  C      -3.649388     -1.933307      0.093491
  C      -2.472893     -2.675370      0.044194
  C      -1.242219     -2.011449      0.038063
  C      -1.209250     -0.587004      0.082362
  C      -2.430849      0.190861      0.132506
  O      -2.409059      1.482016      0.174240
  C       0.061254      0.046738      0.074791
  C       1.277638     -0.682540      0.024964
  C       1.202383     -2.111121     -0.018969
  C      -0.001525     -2.735237     -0.012102
  N       0.121276      1.405002      0.117133
  C       1.265995      2.091886      0.114179
  C       2.476300      1.424290      0.066520
  C       2.476649      0.035858      0.022067
  H      -0.853301      1.824534      0.153534
  H      -4.569241      0.009121      0.175591
  H      -4.601640     -2.451746      0.098225
  H      -2.499966     -3.756868      0.010879
  H      -0.050095     -3.817284     -0.045419
  H       2.124783     -2.676751     -0.057129
  H       3.414554     -0.504782     -0.015035
  H       1.182632      3.168575      0.151111
  H       3.398534      1.986450      0.065020
24
Coordinates from ORCA-job HBQ-Keto_GS E -631.031847839476
  C      -3.639568     -0.546182      0.137391
  C      -3.649264     -1.933065      0.092915
  C      -2.472975     -2.675198      0.044045
  C      -1.242126     -2.011555      0.038333
  C      -1.208949     -0.587116      0.082883
  C      -2.430533      0.190751      0.134643
  O      -2.408143      1.482100      0.176227
  C       0.061301      0.046804      0.074755
  C       1.277666     -0.682541      0.025076
  C       1.202400     -2.111014     -0.018794
  C      -0.001472     -2.735365     -0.011993
  N       0.120955      1.405234      0.116534
  C       1.265687      2.091712      0.113696
  C       2.476144      1.424192      0.066578
  C       2.476764      0.035783      0.022351
  H      -0.855425      1.822999      0.151769
  H      -4.569002      0.009300      0.175754
  H      -4.601673     -2.451182      0.096905
  H      -2.500061     -3.756678      0.010210
  H      -0.049838     -3.817393     -0.045463
  H       2.124810     -2.676621     -0.057004
  H       3.414694     -0.504795     -0.014544
  H       1.183093      3.168495      0.150008
  H       3.398176      1.986665      0.065005
