! CAM-B3LYP FREQ Def2-TZVP(-f) Def2-TZVP/C Def2/J RIJCOSX TightSCF CPCM(Water) AllPop SOSCF
%pal nprocs 128 end

%tddft
    NRoots 3
    IRoot 1
end 

* xyz 1 1 
  C     -4.407140   -1.283900    1.663535
  C     -3.562134   -0.833223    0.495185
  C     -3.503543   -2.224811    1.103524
  C     -3.325179   -1.755231    2.589851
  C     -2.443893    0.104931    0.735672
  C     -1.793961    0.105923    1.961347
  O     -1.902122    0.825243   -0.273148
  C     -2.145701   -0.956037    2.878526
  C     -1.288086   -1.298390    3.926490
  C     -0.070792   -0.681892    4.077378
  C     -0.670381    0.941622    2.328725
  C      0.263608    0.444764    3.277509
  N     -0.439182    2.197023    1.802572
  C      0.769242    2.789395    1.930044
  C      1.786391    2.221042    2.671452
  C      1.505249    1.093319    3.407123
  C     -2.629270    1.178761   -1.420674
  O     -3.826985    1.379224   -1.379449
  N     -1.822014    1.293127   -2.480795
  C     -2.365738    1.803600   -3.735664
  C     -0.389741    1.003658   -2.484915
  H     -0.158502    0.413600   -3.372400
  H     -0.105831    0.441982   -1.603474
  H      0.182739    1.932925   -2.524336
  H     -3.412242    2.056217   -3.606581
  H     -2.266411    1.046044   -4.515088
  H     -1.809956    2.692999   -4.038106
  H     -3.598846   -2.505570    3.321032
  H     -4.072464   -0.753198   -0.450896
  H     -3.395601   -3.225616    0.713354
  H     -1.566667   -2.117424    4.577500
  H      0.641564   -1.015770    4.818736
  H      0.882669    3.757739    1.468768
  H      2.744554    2.716285    2.723352
  H      2.238249    0.685262    4.091438
  P     -1.761343    3.369910    1.392873
  O     -3.073712    2.781294    1.651489
  O     -1.314455    3.741596   -0.052997
  O     -1.372222    4.617922    2.255622
  C     -1.458154    5.079256   -0.670087
  C     -2.025515    4.971806    3.532343
  C     -2.873899    5.337970   -1.122990
  H     -0.764056    5.040623   -1.505100
  H     -1.111893    5.814120    0.052751
  H     -3.564965    5.378978   -0.279988
  H     -3.209200    4.572738   -1.822786
  H     -2.900433    6.304592   -1.630403
  C     -1.099873    4.693382    4.690774
  H     -2.957643    4.416086    3.602899
  H     -2.245517    6.031944    3.431443
  H     -1.585220    5.026441    5.610450
  H     -0.160964    5.237011    4.582291
  H     -0.887395    3.627658    4.783065
*

