42
Coordinates from ORCA-job NMU-1_ES E -1033.198794372058
  C      -6.516150     -1.520960      0.002630
  C      -6.586310     -2.658270     -0.995370
  C      -5.550710     -3.708330     -0.632760
  H      -6.398590     -2.270490     -1.991970
  H      -7.581410     -3.086970     -0.990870
  C      -4.197020     -3.081830     -0.372090
  H      -5.460840     -4.449460     -1.417730
  H      -5.878970     -4.235520      0.259070
  C      -4.080620     -1.709660     -0.030560
  N      -5.200210     -0.909940      0.001840
  H      -6.773230     -1.885950      0.998590
  H      -7.232270     -0.751490     -0.251990
  C      -5.121580      0.374250      0.670330
  C      -3.867760      1.114680      0.255820
  H      -5.140120      0.247680      1.754360
  H      -6.000800      0.941270      0.397050
  C      -2.638170      0.295860      0.613980
  H      -3.831330      2.080610      0.745180
  H      -3.900870      1.290190     -0.814830
  C      -2.818130     -1.159840      0.240480
  H      -2.446350      0.371790      1.680830
  H      -1.764740      0.696060      0.116290
  C      -3.068430     -3.849150     -0.444850
  C      -1.722130     -1.995200      0.164330
  C      -1.804520     -3.329350     -0.176870
  O      -0.510480     -1.456400      0.445110
  C       0.647260     -2.123500      0.409000
  C      -0.590820     -4.088680     -0.219160
  C       0.601070     -3.542230      0.057980
  O       1.636620     -1.506760      0.660860
  C       1.869020     -4.312250     -0.000280
  C       2.786670     -4.323580      1.040800
  C       2.170010     -5.084890     -1.110590
  N       3.254730     -5.828880     -1.222190
  C       4.111710     -5.832590     -0.221260
  C       3.923570     -5.094160      0.931530
  H       1.498970     -5.093750     -1.950520
  H       4.648490     -5.128920      1.721410
  H       4.987430     -6.445440     -0.336250
  H       2.609930     -3.744760      1.926550
  H      -3.154560     -4.887820     -0.709810
  H      -0.657040     -5.130720     -0.473610
42
Coordinates from ORCA-job NMU-1_ES E -1033.212241026710
  C      -6.543781     -1.504473     -0.022718
  C      -6.604446     -2.638430     -1.031839
  C      -5.576959     -3.701275     -0.662654
  H      -6.400142     -2.242427     -2.029164
  H      -7.609022     -3.060434     -1.043268
  C      -4.223062     -3.091180     -0.382544
  H      -5.481349     -4.443406     -1.455870
  H      -5.918391     -4.236963      0.228998
  C      -4.098567     -1.716318     -0.023903
  N      -5.216831     -0.907100      0.017809
  H      -6.815846     -1.875072      0.976132
  H      -7.250653     -0.717281     -0.281034
  C      -5.133005      0.390014      0.673485
  C      -3.863209      1.117790      0.268657
  H      -5.163708      0.258953      1.765002
  H      -6.013727      0.963200      0.388898
  C      -2.640224      0.284811      0.636465
  H      -3.824617      2.087887      0.763209
  H      -3.885593      1.297300     -0.808245
  C      -2.820288     -1.165670      0.258240
  H      -2.456743      0.351786      1.713369
  H      -1.750572      0.680808      0.148528
  C      -3.089654     -3.869758     -0.451764
  C      -1.721919     -2.006378      0.190804
  C      -1.811508     -3.356941     -0.164666
  O      -0.502327     -1.457594      0.493033
  C       0.677511     -2.148886      0.468127
  C      -0.601935     -4.126402     -0.204361
  C       0.617476     -3.557834      0.094738
  O       1.687374     -1.512271      0.721129
  C       1.874928     -4.313651      0.016779
  C       2.859715     -4.259362      1.014070
  C       2.121581     -5.161983     -1.069591
  N       3.217908     -5.902886     -1.202289
  C       4.141825     -5.838508     -0.239827
  C       4.002789     -5.028159      0.883116
  H       1.396902     -5.226037     -1.874592
  H       4.774857     -5.011140      1.640536
  H       5.025233     -6.455340     -0.365455
  H       2.723805     -3.628614      1.881529
  H      -3.181173     -4.912628     -0.729286
  H      -0.671331     -5.173496     -0.469125
42
Coordinates from ORCA-job NMU-1_ES E -1033.215763115297
  C      -6.552336     -1.497921     -0.049469
  C      -6.598372     -2.620303     -1.073032
  C      -5.579899     -3.691546     -0.700000
  H      -6.376918     -2.212924     -2.063493
  H      -7.606127     -3.036613     -1.104508
  C      -4.229247     -3.092361     -0.396791
  H      -5.476694     -4.427727     -1.499865
  H      -5.934489     -4.236754      0.183002
  C      -4.104766     -1.721495     -0.018285
  N      -5.220341     -0.911436      0.035308
  H      -6.842444     -1.878258      0.942940
  H      -7.246973     -0.698503     -0.308372
  C      -5.139195      0.392039      0.683607
  C      -3.861201      1.113904      0.293325
  H      -5.183119      0.256637      1.776167
  H      -6.018719      0.963852      0.388550
  C      -2.646227      0.272958      0.670559
  H      -3.825827      2.082304      0.793983
  H      -3.871638      1.299215     -0.784067
  C      -2.820813     -1.171761      0.280415
  H      -2.476230      0.328791      1.752318
  H      -1.745885      0.669519      0.199911
  C      -3.092218     -3.872942     -0.464697
  C      -1.722197     -2.014245      0.216892
  C      -1.809814     -3.368158     -0.157934
  O      -0.504505     -1.458287      0.539515
  C       0.685499     -2.168104      0.507638
  C      -0.607367     -4.143300     -0.196689
  C       0.623426     -3.563253      0.123011
  O       1.691141     -1.521864      0.795642
  C       1.869654     -4.312833      0.033132
  C       2.928946     -4.168517      0.951049
  C       2.049022     -5.266797     -0.988601
  N       3.141470     -6.014149     -1.135516
  C       4.134106     -5.858589     -0.246182
  C       4.064112     -4.946772      0.807416
  H       1.268780     -5.406312     -1.730692
  H       4.886586     -4.862433      1.507150
  H       5.011033     -6.484420     -0.376486
  H       2.848928     -3.464515      1.767707
  H      -3.183205     -4.912690     -0.757976
  H      -0.674613     -5.188790     -0.466121
42
Coordinates from ORCA-job NMU-1_ES E -1033.217236623443
  C      -6.554910     -1.497114     -0.077709
  C      -6.580718     -2.607145     -1.114492
  C      -5.571240     -3.683588     -0.734002
  H      -6.339952     -2.189025     -2.095782
  H      -7.588697     -3.020268     -1.169475
  C      -4.225227     -3.089654     -0.406025
  H      -5.457936     -4.413727     -1.537970
  H      -5.940814     -4.236091      0.138218
  C      -4.106950     -1.723729     -0.009617
  N      -5.221658     -0.919082      0.052400
  H      -6.869776     -1.887360      0.903323
  H      -7.237382     -0.689244     -0.341483
  C      -5.149270      0.389853      0.692015
  C      -3.866346      1.109488      0.317037
  H      -5.208187      0.257571      1.784235
  H      -6.026667      0.956585      0.382376
  C      -2.658328      0.266630      0.708441
  H      -3.837369      2.076710      0.820233
  H      -3.863524      1.297013     -0.759869
  C      -2.823750     -1.174674      0.306230
  H      -2.506089      0.314980      1.793363
  H      -1.749553      0.666832      0.257703
  C      -3.085457     -3.866473     -0.471376
  C      -1.724021     -2.015919      0.246682
  C      -1.804567     -3.367264     -0.144521
  O      -0.511951     -1.457493      0.589337
  C       0.683298     -2.178841      0.561608
  C      -0.607549     -4.142202     -0.186063
  C       0.628501     -3.560834      0.153260
  O       1.680119     -1.516814      0.847640
  C       1.867371     -4.311177      0.049311
  C       2.994421     -4.092951      0.872200
  C       1.980158     -5.362345     -0.891738
  N       3.060897     -6.121784     -1.051639
  C       4.114989     -5.889772     -0.253092
  C       4.115180     -4.886915      0.717187
  H       1.151503     -5.565865     -1.561890
  H       4.983813     -4.746002      1.348440
  H       4.980921     -6.528359     -0.389878
  H       2.971486     -3.322602      1.627908
  H      -3.171806     -4.901933     -0.780456
  H      -0.671643     -5.184767     -0.461613
42
Coordinates from ORCA-job NMU-1_ES E -1033.217941475672
  C      -6.557207     -1.498358     -0.096262
  C      -6.564168     -2.592077     -1.149743
  C      -5.561718     -3.673902     -0.768144
  H      -6.307254     -2.159871     -2.120475
  H      -7.571169     -3.003501     -1.227338
  C      -4.219121     -3.083328     -0.420698
  H      -5.441322     -4.396389     -1.577575
  H      -5.942734     -4.234426      0.093496
  C      -4.108709     -1.723298     -0.001766
  N      -5.224511     -0.928466      0.076713
  H      -6.897718     -1.902231      0.870050
  H      -7.228746     -0.682553     -0.362177
  C      -5.160827      0.383422      0.711438
  C      -3.875390      1.104161      0.349589
  H      -5.231473      0.255296      1.802954
  H      -6.036613      0.945530      0.390320
  C      -2.671808      0.260548      0.749751
  H      -3.851776      2.069123      0.857000
  H      -3.862928      1.296150     -0.726172
  C      -2.827944     -1.176219      0.328084
  H      -2.536101      0.297855      1.837103
  H      -1.757157      0.668448      0.318850
  C      -3.077279     -3.853179     -0.492096
  C      -1.725563     -2.012974      0.260338
  C      -1.798229     -3.357255     -0.152158
  O      -0.517704     -1.456467      0.615081
  C       0.685145     -2.175201      0.563988
  C      -0.605627     -4.130294     -0.199271
  C       0.636190     -3.554248      0.149834
  O       1.665965     -1.517014      0.898411
  C       1.867099     -4.315175      0.055823
  C       3.048259     -4.023495      0.777577
  C       1.928556     -5.462120     -0.779862
  N       2.997670     -6.236766     -0.929060
  C       4.099451     -5.930031     -0.227780
  C       4.156635     -4.833891      0.632693
  H       1.065992     -5.728690     -1.379433
  H       5.062741     -4.632899      1.190202
  H       4.955968     -6.582426     -0.355770
  H       3.073625     -3.181743      1.450454
  H      -3.158458     -4.883651     -0.818454
  H      -0.672723     -5.173748     -0.465054
42
Coordinates from ORCA-job NMU-1_ES E -1033.218193201483
  C      -6.559278     -1.496988     -0.109502
  C      -6.553107     -2.586113     -1.167659
  C      -5.557636     -3.670850     -0.776952
  H      -6.282867     -2.150775     -2.133157
  H      -7.559368     -2.995952     -1.260206
  C      -4.216264     -3.081773     -0.420761
  H      -5.433511     -4.394686     -1.584249
  H      -5.947933     -4.228498      0.082024
  C      -4.110596     -1.723235      0.007621
  N      -5.227424     -0.934101      0.091287
  H      -6.922510     -1.903210      0.846930
  H      -7.221195     -0.676769     -0.385102
  C      -5.168546      0.383208      0.714805
  C      -3.879175      1.100605      0.359996
  H      -5.250263      0.267597      1.806463
  H      -6.040431      0.942835      0.379584
  C      -2.680665      0.257133      0.774487
  H      -3.857988      2.067503      0.863521
  H      -3.857357      1.288121     -0.716240
  C      -2.832099     -1.177915      0.344027
  H      -2.560998      0.291573      1.863576
  H      -1.760475      0.667425      0.358444
  C      -3.074169     -3.847555     -0.494952
  C      -1.728292     -2.012283      0.273582
  C      -1.796794     -3.352264     -0.146999
  O      -0.522840     -1.461676      0.637505
  C       0.681516     -2.178665      0.591746
  C      -0.604670     -4.121563     -0.200461
  C       0.639717     -3.553936      0.154842
  O       1.658714     -1.511331      0.906546
  C       1.868345     -4.319322      0.060800
  C       3.072756     -4.001356      0.732541
  C       1.910693     -5.499855     -0.732366
  N       2.975424     -6.279251     -0.879187
  C       4.096509     -5.946764     -0.224473
  C       4.177101     -4.816542      0.587469
  H       1.036807     -5.791501     -1.301097
  H       5.099335     -4.590974      1.107443
  H       4.949444     -6.603440     -0.353237
  H       3.119027     -3.132793      1.368054
  H      -3.152117     -4.875566     -0.829476
  H      -0.675494     -5.163851     -0.466756
42
Coordinates from ORCA-job NMU-1_ES E -1033.218280502967
  C      -6.560767     -1.494560     -0.112343
  C      -6.550816     -2.584505     -1.169932
  C      -5.559237     -3.670658     -0.772922
  H      -6.274754     -2.150697     -2.134506
  H      -7.557191     -2.993034     -1.267361
  C      -4.216803     -3.082596     -0.418706
  H      -5.436311     -4.399003     -1.576288
  H      -5.952619     -4.222033      0.088730
  C      -4.111709     -1.723856      0.013078
  N      -5.228952     -0.936244      0.099153
  H      -6.935598     -1.898654      0.840353
  H      -7.217243     -0.672264     -0.395145
  C      -5.170158      0.384349      0.715333
  C      -3.877660      1.098079      0.363067
  H      -5.257759      0.277361      1.807303
  H      -6.038826      0.944391      0.372173
  C      -2.682740      0.253523      0.786217
  H      -3.856262      2.066893      0.862948
  H      -3.850588      1.281316     -0.713840
  C      -2.833676     -1.180139      0.350448
  H      -2.572935      0.286181      1.876406
  H      -1.758968      0.663981      0.378428
  C      -3.075070     -3.847157     -0.498116
  C      -1.729287     -2.013198      0.274560
  C      -1.797331     -3.351005     -0.150856
  O      -0.523166     -1.466569      0.638511
  C       0.682065     -2.177826      0.585489
  C      -0.604049     -4.118122     -0.208982
  C       0.641255     -3.554757      0.145164
  O       1.658228     -1.514299      0.906976
  C       1.869321     -4.320532      0.055319
  C       3.075264     -3.995332      0.720672
  C       1.912273     -5.507565     -0.728787
  N       2.977470     -6.287923     -0.867256
  C       4.099051     -5.950120     -0.216730
  C       4.180352     -4.811095      0.582843
  H       1.039631     -5.807677     -1.294791
  H       5.103408     -4.577804      1.098033
  H       4.951901     -6.608183     -0.339644
  H       3.122807     -3.119219      1.346112
  H      -3.152694     -4.874359     -0.835300
  H      -0.678536     -5.160439     -0.475355
42
Coordinates from ORCA-job NMU-1_ES E -1033.218331008493
  C      -6.561672     -1.491713     -0.120736
  C      -6.545493     -2.586506     -1.173536
  C      -5.559761     -3.672988     -0.762636
  H      -6.260169     -2.158312     -2.138012
  H      -7.552023     -2.993294     -1.277221
  C      -4.216539     -3.085442     -0.411560
  H      -5.437537     -4.410747     -1.557476
  H      -5.958217     -4.212258      0.104501
  C      -4.112674     -1.725594      0.021278
  N      -5.230349     -0.938909      0.105204
  H      -6.952195     -1.889478      0.828292
  H      -7.210456     -0.667523     -0.416293
  C      -5.172839      0.387044      0.709434
  C      -3.875346      1.095248      0.363030
  H      -5.271089      0.292153      1.801616
  H      -6.036405      0.947022      0.352954
  C      -2.686625      0.249710      0.802119
  H      -3.855377      2.067377      0.856625
  H      -3.838210      1.270941     -0.714936
  C      -2.835480     -1.182582      0.361340
  H      -2.593371      0.281234      1.893985
  H      -1.756875      0.659480      0.407583
  C      -3.074585     -3.848751     -0.494858
  C      -1.730113     -2.013918      0.281413
  C      -1.796746     -3.350372     -0.148517
  O      -0.523375     -1.469281      0.644506
  C       0.682969     -2.173520      0.584316
  C      -0.601254     -4.113985     -0.211053
  C       0.644153     -3.552763      0.142474
  O       1.658462     -1.510506      0.907428
  C       1.871181     -4.317319      0.050357
  C       3.079274     -3.993342      0.712988
  C       1.910638     -5.506070     -0.732061
  N       2.974434     -6.289016     -0.869002
  C       4.097918     -5.953060     -0.220486
  C       4.182784     -4.811670      0.576226
  H       1.037616     -5.808240     -1.296897
  H       5.106844     -4.577459      1.089396
  H       4.948662     -6.614341     -0.341572
  H       3.130145     -3.115496      1.335792
  H      -3.151226     -4.875545     -0.833586
  H      -0.677758     -5.155564     -0.481961
42
Coordinates from ORCA-job NMU-1_ES E -1033.218346942813
  C      -6.561890     -1.487714     -0.127509
  C      -6.543330     -2.587721     -1.174876
  C      -5.562322     -3.674337     -0.753093
  H      -6.251914     -2.165433     -2.140152
  H      -7.550436     -2.992402     -1.281285
  C      -4.218081     -3.087891     -0.405276
  H      -5.441487     -4.420010     -1.540694
  H      -5.964240     -4.203479      0.118768
  C      -4.113397     -1.727264      0.025974
  N      -5.230236     -0.939175      0.106078
  H      -6.961415     -1.879129      0.820427
  H      -7.205153     -0.662330     -0.431967
  C      -5.172499      0.390243      0.702499
  C      -3.871030      1.093506      0.360800
  H      -5.278343      0.302404      1.794576
  H      -6.032100      0.950756      0.337171
  C      -2.687610      0.246181      0.810857
  H      -3.851657      2.067725      0.850294
  H      -3.826476      1.264139     -0.717732
  C      -2.836040     -1.185298      0.367724
  H      -2.605779      0.277003      1.903712
  H      -1.753393      0.654264      0.425510
  C      -3.076543     -3.851889     -0.489755
  C      -1.731118     -2.016946      0.286574
  C      -1.798217     -3.353331     -0.144860
  O      -0.523697     -1.473409      0.650024
  C       0.681912     -2.176226      0.587100
  C      -0.602250     -4.116272     -0.209442
  C       0.643251     -3.555173      0.143590
  O       1.658830     -1.513774      0.908386
  C       1.870973     -4.317052      0.048342
  C       3.077972     -3.993862      0.713557
  C       1.912988     -5.501951     -0.739986
  N       2.978484     -6.282371     -0.879688
  C       4.100751     -5.947775     -0.227910
  C       4.182970     -4.809628      0.574281
  H       1.041710     -5.802734     -1.308258
  H       5.105889     -4.575744      1.089677
  H       4.952604     -6.607296     -0.350697
  H       3.126964     -3.118434      1.340170
  H      -3.153778     -4.878782     -0.827964
  H      -0.679550     -5.156740     -0.484488
42
Coordinates from ORCA-job NMU-1_ES E -1033.218361186915
  C      -6.561813     -1.483827     -0.136695
  C      -6.539987     -2.590743     -1.176664
  C      -5.564058     -3.676538     -0.741278
  H      -6.241635     -2.176042     -2.143107
  H      -7.547602     -2.993370     -1.285913
  C      -4.219003     -3.090433     -0.397484
  H      -5.444570     -4.432083     -1.519550
  H      -5.969761     -4.193221      0.136370
  C      -4.113967     -1.729031      0.031004
  N      -5.229890     -0.939461      0.105673
  H      -6.971155     -1.867175      0.810351
  H      -7.198829     -0.657534     -0.451784
  C      -5.172809      0.394079      0.693025
  C      -3.866901      1.092038      0.357773
  H      -5.288143      0.313841      1.784728
  H      -6.027905      0.954480      0.317002
  C      -2.689773      0.243043      0.820939
  H      -3.848980      2.068509      0.842785
  H      -3.813207      1.257092     -0.721232
  C      -2.836543     -1.187569      0.375057
  H      -2.622035      0.272707      1.914847
  H      -1.750330      0.649623      0.447303
  C      -3.077462     -3.854655     -0.482658
  C      -1.731954     -2.019281      0.293231
  C      -1.798836     -3.355742     -0.139600
  O      -0.524289     -1.475720      0.657966
  C       0.680665     -2.177675      0.591966
  C      -0.602610     -4.118043     -0.206066
  C       0.642820     -3.555698      0.146677
  O       1.658556     -1.514705      0.911527
  C       1.871326     -4.315486      0.046730
  C       3.077779     -3.996292      0.715270
  C       1.914214     -5.495275     -0.749260
  N       2.980329     -6.273973     -0.894555
  C       4.102129     -5.942945     -0.239821
  C       4.183179     -4.810361      0.570607
  H       1.043188     -5.792388     -1.319910
  H       5.105404     -4.579644      1.088666
  H       4.954468     -6.601036     -0.366674
  H       3.125855     -3.125618      1.348434
  H      -3.155066     -4.881868     -0.819721
  H      -0.679478     -5.157329     -0.485497
42
Coordinates from ORCA-job NMU-1_ES E -1033.218364863678
  C      -6.561651     -1.481834     -0.141310
  C      -6.538612     -2.592088     -1.177634
  C      -5.564862     -3.677397     -0.736286
  H      -6.237430     -2.180967     -2.144712
  H      -7.546483     -2.993768     -1.287848
  C      -4.219491     -3.091291     -0.394111
  H      -5.445972     -4.437288     -1.510338
  H      -5.972185     -4.188614      0.143819
  C      -4.114158     -1.729674      0.032669
  N      -5.229443     -0.939085      0.104292
  H      -6.974711     -1.861302      0.805649
  H      -7.195969     -0.655243     -0.460965
  C      -5.172769      0.396020      0.688366
  C      -3.864803      1.091576      0.356542
  H      -5.292566      0.318409      1.779751
  H      -6.025792      0.956401      0.307676
  C      -2.690629      0.241589      0.825130
  H      -3.847447      2.068761      0.840102
  H      -3.806992      1.254784     -0.722522
  C      -2.836626     -1.188646      0.377973
  H      -2.629078      0.270386      1.919442
  H      -1.748866      0.647547      0.456932
  C      -3.077984     -3.855649     -0.479091
  C      -1.732349     -2.020634      0.296370
  C      -1.799232     -3.357056     -0.136751
  O      -0.524738     -1.477006      0.662477
  C       0.679787     -2.179574      0.595437
  C      -0.603290     -4.119694     -0.203833
  C       0.642039     -3.556454      0.148593
  O       1.658196     -1.516863      0.914897
  C       1.871157     -4.315522      0.046452
  C       3.077359     -3.997188      0.715708
  C       1.914704     -5.492943     -0.752635
  N       2.981398     -6.270159     -0.901138
  C       4.103172     -5.939658     -0.246154
  C       4.183404     -4.809758      0.567857
  H       1.043092     -5.788800     -1.323054
  H       5.105614     -4.580129      1.086402
  H       4.956268     -6.596202     -0.375787
  H       3.124652     -3.128580      1.351779
  H      -3.155968     -4.883074     -0.815403
  H      -0.679429     -5.158685     -0.484284
42
Coordinates from ORCA-job NMU-1_ES E -1033.218367586708
  C      -6.561581     -1.481196     -0.143306
  C      -6.537991     -2.592804     -1.178141
  C      -5.564889     -3.677809     -0.734651
  H      -6.235911     -2.183030     -2.145506
  H      -7.545915     -2.994260     -1.288653
  C      -4.219506     -3.091444     -0.392938
  H      -5.446093     -4.439221     -1.507185
  H      -5.972764     -4.187166      0.146272
  C      -4.114213     -1.729730      0.033054
  N      -5.229268     -0.938757      0.103226
  H      -6.975828     -1.859097      0.803729
  H      -7.194972     -0.654599     -0.464729
  C      -5.173020      0.396835      0.686414
  C      -3.864242      1.091571      0.356229
  H      -5.294774      0.319988      1.777612
  H      -6.025216      0.957144      0.303800
  C      -2.691186      0.241198      0.826738
  H      -3.847077      2.068891      0.839517
  H      -3.804839      1.254440     -0.722795
  C      -2.836707     -1.188899      0.378993
  H      -2.631992      0.269468      1.921207
  H      -1.748556      0.647104      0.460789
  C      -3.077934     -3.855672     -0.477592
  C      -1.732445     -2.020938      0.297730
  C      -1.799182     -3.357221     -0.135368
  O      -0.525023     -1.477215      0.664691
  C       0.679566     -2.180084      0.597201
  C      -0.603391     -4.120126     -0.202564
  C       0.641857     -3.556465      0.149496
  O       1.657868     -1.517553      0.917370
  C       1.871190     -4.315661      0.046456
  C       3.077524     -3.997637      0.715432
  C       1.914519     -5.492371     -0.753384
  N       2.981265     -6.269128     -0.903387
  C       4.103370     -5.938691     -0.249075
  C       4.183725     -4.809795      0.566058
  H       1.042168     -5.787823     -1.322877
  H       5.106267     -4.580713      1.084246
  H       4.956722     -6.594606     -0.380232
  H       3.124774     -3.129760      1.352449
  H      -3.156014     -4.883219     -0.813531
  H      -0.678966     -5.159300     -0.482334
