! B3LYP/G OPT Def2-TZVP(-f) Def2-TZVP/C Def2/J RIJCOSX TightSCF CPCM(Water) AllPop SOSCF
%maxcore 3000
%tddft
    NRoots 5
    IRoot 1
end

* xyz 0 1
   C       -6.51615       -1.52096        0.00263
   C       -6.58631       -2.65827       -0.99537
   C       -5.55071       -3.70833       -0.63276
   H       -6.39859       -2.27049       -1.99197
   H       -7.58141       -3.08697       -0.99087
   C       -4.19702       -3.08183       -0.37209
   H       -5.46084       -4.44946       -1.41773
   H       -5.87897       -4.23552        0.25907
   C       -4.08062       -1.70966       -0.03056
   N       -5.20021       -0.90994        0.00184
   H       -6.77323       -1.88595        0.99859
   H       -7.23227       -0.75149       -0.25199
   C       -5.12158        0.37425        0.67033
   C       -3.86776        1.11468        0.25582
   H       -5.14012        0.24768        1.75436
   H       -6.00080        0.94127        0.39705
   C       -2.63817        0.29586        0.61398
   H       -3.83133        2.08061        0.74518
   H       -3.90087        1.29019       -0.81483
   C       -2.81813       -1.15984        0.24048
   H       -2.44635        0.37179        1.68083
   H       -1.76474        0.69606        0.11629
   C       -3.06843       -3.84915       -0.44485
   C       -1.72213       -1.99520        0.16433
   C       -1.80452       -3.32935       -0.17687
   O       -0.51048       -1.45640        0.44511
   C        0.64726       -2.12350        0.40900
   C       -0.59082       -4.08868       -0.21916
   C        0.60107       -3.54223        0.05798
   O        1.63662       -1.50676        0.66086
   C        1.86902       -4.31225       -0.00028
   C        2.78667       -4.32358        1.04080
   C        2.17001       -5.08489       -1.11059
   N        3.25473       -5.82888       -1.22219
   C        4.11171       -5.83259       -0.22126
   C        3.92357       -5.09416        0.93153
   H        1.49897       -5.09375       -1.95052
   H        4.64849       -5.12892        1.72141
   H        4.98743       -6.44544       -0.33625
   H        2.60993       -3.74476        1.92655
   H       -3.15456       -4.88782       -0.70981
   H       -0.65704       -5.13072       -0.47361
*

