34
Coordinates from ORCA-job hbq-es E -877.844162262022
  C          -3.31316765660395     -1.05231054269729     -0.30725735170580
  C          -2.75725424227470     -1.99581136647774     -1.17191772874226
  C          -1.41210505918030     -1.90496280935822     -1.48127968024076
  C          -2.53353414090495     -0.05006721250667      0.25683442876866
  C          -1.13679522186876      0.04308791312135      0.03179574383005
  O          -3.21839985622964      0.79800529249762      1.08150666689506
  C          -0.59455518740237     -0.91088153786523     -0.91822799991630
  C           0.75825233534825     -0.84555030970781     -1.25548645927621
  C           1.59926604370059      0.10019146580768     -0.69271304139995
  C          -0.25516600242589      0.94877690789881      0.69122810293796
  C           1.13782345797844      0.99601481027444      0.28165937889189
  N          -0.70571076940810      1.75214390550128      1.67553945030061
  C           0.12976478675628      2.64956639129485      2.20916526866780
  C           1.45382875753106      2.81694132511485      1.82491332709535
  C           1.97281273362011      1.96135382752817      0.86457474155401
  C          -3.26386141408853      2.13494428224188      0.77615417576710
  O          -2.94502602099434      2.55147177237475     -0.31852403337684
  N          -3.78610771803870      2.85530582315247      1.77624972126862
  C          -3.96675799643681      2.34555607755258      3.12452049382299
  C          -3.87545254760250      4.29547825258767      1.61893711812342
  H          -3.01864895537722      4.79251153324171      2.08068353352872
  H          -4.78544881090088      4.64853880611705      2.10153553181995
  H          -3.90640211718270      4.54802056422547      0.56484531157076
  H          -3.09975841751379      2.57904993522980      3.74705470004130
  H          -4.11606180039031      1.27275070831605      3.11326460691747
  H          -4.84581149156578      2.81930599372620      3.55880028429616
  H          -0.96244803174769     -2.61004892961917     -2.16872185870107
  H          -4.36954486063782     -1.05834208050843     -0.07713865450268
  H          -3.37565629199700     -2.76449112994750     -1.61210786368967
  H           1.14961947778622     -1.55193123789449     -1.97626712607747
  H           2.63611449960239      0.15136362720178     -0.99885990804909
  H          -0.27994731726755      3.25762662457857      3.00863702175366
  H           2.06454760086419      3.56872248909351      2.30431729543206
  H           3.00975224217735      2.01549882976222      0.56066479671342
