! cam-b3lyp VERYTIGHTOPT FREQ Def2-TZVP(-f) Def2-TZVP/C Def2/J RIJCOSX TightSCF CPCM(Water) AllPop SOSCF
%pal nprocs 128 end
%tddft
    NRoots 3
    IRoot 1
end 

* xyz 0 1 
  C          -3.30275837276070     -1.10225919064019     -0.23608248624623
  C          -2.75697942322917     -2.04374852739824     -1.10719403080731
  C          -1.42508272944947     -1.91962543669772     -1.47444427652290
  C          -2.52150503353398     -0.05964379286878      0.28108927359715
  C          -1.12123240807932      0.04171112284140      0.02686830475695
  O          -3.22276751799606      0.81107803458248      1.06151039908223
  C          -0.59793883077458     -0.89844631185998     -0.94116887419510
  C           0.74408142117640     -0.81671378642399     -1.32526697154036
  C           1.58569732239444      0.14349987838371     -0.76929361404608
  C          -0.22614377797250      0.94076444055219      0.69413862067265
  C           1.14535790512010      1.01239268993266      0.24559284351604
  N          -0.66888255615188      1.69836027300136      1.73249098040614
  C           0.18329183973440      2.59557226937155      2.27223382322247
  C           1.49460964412188      2.78398176784945      1.85607801796243
  C           2.00307334930733      1.96730191206452      0.84337465097592
  C          -3.21672298959110      2.17231943728836      0.77004592254346
  O          -2.85183011349962      2.59019108024525     -0.31215659673643
  N          -3.76810070787185      2.88547920366514      1.76490979860237
  C          -4.05328950589666      2.35793096737573      3.09476119500566
  C          -3.87627926546117      4.33184382140048      1.61501364345263
  H          -3.09963823873655      4.83812399596787      2.19463174773639
  H          -4.85116726660033      4.65552623805094      1.98069813601506
  H          -3.77455222274413      4.60067013336094      0.56901611991011
  H          -3.26030553114815      2.63486183131575      3.79479041092679
  H          -4.14343497886490      1.27838941329047      3.06996839283761
  H          -4.99262097744380      2.78608009885565      3.44530251047586
  H          -0.98567851407382     -2.61939524384490     -2.17424688549707
  H          -4.35240871129897     -1.12136057383066      0.02411828284690
  H          -3.37234542682238     -2.83308520151086     -1.51520127301814
  H           1.12566236090930     -1.51222554514660     -2.06163206112933
  H           2.61231992951100      0.21648456506591     -1.10770590629945
  H          -0.20913667642843      3.17684078519461      3.10040516058897
  H           2.11280610412088      3.52570926327954      2.34465723658199
  H           3.03206190735826      2.03922038914426      0.51707749864162
*
