## avogadro generated ORCA input file 
# Advanced Mode
# 
! B3LYP/G OPT Freq Def2-TZVP(-f) Def2-TZVP/C Def2/J RIJCOSX TightSCF CPCM(Water) AllPop SOSCF
%maxcore 3000

%scf
	MaxIter 125
	CNVDIIS 1
	CNVSOSCF 1 
end

%tddft
    NRoots 1
    IRoot 1
end

* xyz 1 1
   C       -2.99216       -0.91079        0.23086
   C       -2.54105       -1.92218       -0.61894
   C       -1.28231       -1.86837       -1.13606
   C       -2.17644        0.12908        0.54827
   C       -0.84971        0.20197        0.07068
   O       -2.64910        1.09729        1.40037
   C       -0.42106       -0.81312       -0.80360
   C        0.89740       -0.77746       -1.37730
   C        1.75025        0.20797       -1.09545
   C        0.11318        1.22877        0.40802
   C        1.37653        1.24280       -0.17600
   N       -0.15809        2.19518        1.31258
   C        0.67624        3.15637        1.64971
   C        1.92506        3.23314        1.07573
   C        2.26843        2.26633        0.16853
   C       -3.66331        1.90295        0.99817
   O       -3.95528        2.00247       -0.15693
   N       -4.22503        2.54017        2.01667
   C       -5.20649        3.57992        1.76061
   C       -3.85193        2.34683        3.40965
   H       -3.47834        1.35148        3.57626
   H       -4.73578        2.48926        4.01537
   H       -3.10255        3.06839        3.71594
   H       -5.34877        3.70235        0.70160
   H       -4.86307        4.51613        2.18478
   H       -6.15082        3.31600        2.22057
   H       -0.93056       -2.63339       -1.80097
   H       -3.98748       -0.93832        0.62991
   H       -3.19706       -2.73498       -0.86489
   H        1.17290       -1.56661       -2.05005
   H        2.73021        0.24311       -1.53075
   H        0.32498        3.85086        2.38573
   H        2.59513        4.02079        1.35095
   H        3.23860        2.27858       -0.29126
   H       -1.04145        2.16781        1.77305


*

