35
Coordinates from ORCA-job HBQ-H_ES E -878.762353677789
  C      -2.992160     -0.910790      0.230860
  C      -2.541050     -1.922180     -0.618940
  C      -1.282310     -1.868370     -1.136060
  C      -2.176440      0.129080      0.548270
  C      -0.849710      0.201970      0.070680
  O      -2.649100      1.097290      1.400370
  C      -0.421060     -0.813120     -0.803600
  C       0.897400     -0.777460     -1.377300
  C       1.750250      0.207970     -1.095450
  C       0.113180      1.228770      0.408020
  C       1.376530      1.242800     -0.176000
  N      -0.158090      2.195180      1.312580
  C       0.676240      3.156370      1.649710
  C       1.925060      3.233140      1.075730
  C       2.268430      2.266330      0.168530
  C      -3.663310      1.902950      0.998170
  O      -3.955280      2.002470     -0.156930
  N      -4.225030      2.540170      2.016670
  C      -5.206490      3.579920      1.760610
  C      -3.851930      2.346830      3.409650
  H      -3.478340      1.351480      3.576260
  H      -4.735780      2.489260      4.015370
  H      -3.102550      3.068390      3.715940
  H      -5.348770      3.702350      0.701600
  H      -4.863070      4.516130      2.184780
  H      -6.150820      3.316000      2.220570
  H      -0.930560     -2.633390     -1.800970
  H      -3.987480     -0.938320      0.629910
  H      -3.197060     -2.734980     -0.864890
  H       1.172900     -1.566610     -2.050050
  H       2.730210      0.243110     -1.530750
  H       0.324980      3.850860      2.385730
  H       2.595130      4.020790      1.350950
  H       3.238600      2.278580     -0.291260
  H      -1.041450      2.167810      1.773050
35
Coordinates from ORCA-job HBQ-H_ES E -878.777563952654
  C      -3.007812     -0.896475      0.203923
  C      -2.577930     -1.916042     -0.642629
  C      -1.302522     -1.869103     -1.156862
  C      -2.160376      0.154173      0.535886
  C      -0.821537      0.220655      0.071105
  O      -2.642135      1.118805      1.385139
  C      -0.415193     -0.813273     -0.815565
  C       0.880722     -0.796252     -1.384283
  C       1.766618      0.199845     -1.086902
  C       0.148698      1.232534      0.417726
  C       1.422866      1.236322     -0.168411
  N      -0.113762      2.219382      1.342271
  C       0.770356      3.190476      1.679516
  C       2.015260      3.234376      1.098273
  C       2.351204      2.249470      0.172394
  C      -3.724877      1.884133      0.987093
  O      -4.063416      1.934991     -0.177261
  N      -4.278817      2.531722      2.019119
  C      -5.316692      3.525282      1.770968
  C      -3.843103      2.392790      3.407220
  H      -3.414492      1.412300      3.583735
  H      -4.713858      2.511482      4.049459
  H      -3.111125      3.160121      3.667774
  H      -5.503424      3.608343      0.706686
  H      -4.996443      4.494271      2.156953
  H      -6.237399      3.233751      2.277668
  H      -0.953806     -2.641825     -1.828056
  H      -4.010905     -0.910412      0.606735
  H      -3.248867     -2.725081     -0.891867
  H       1.144260     -1.592417     -2.067342
  H       2.754268      0.219597     -1.527283
  H       0.438903      3.902279      2.419338
  H       2.705462      4.016268      1.373982
  H       3.325776      2.242171     -0.295387
  H      -1.004831      2.206125      1.810694
35
Coordinates from ORCA-job HBQ-H_ES E -878.780447050054
  C      -3.024905     -0.849032      0.139674
  C      -2.610002     -1.877136     -0.699440
  C      -1.319154     -1.852150     -1.188475
  C      -2.152760      0.194841      0.495183
  C      -0.807489      0.240740      0.058349
  O      -2.627226      1.154877      1.347170
  C      -0.409318     -0.809377     -0.827650
  C       0.881943     -0.818237     -1.366654
  C       1.788296      0.172724     -1.037376
  C       0.160411      1.233701      0.420239
  C       1.452311      1.215459     -0.133291
  N      -0.121612      2.241341      1.331235
  C       0.789092      3.209814      1.679793
  C       2.045338      3.214611      1.134844
  C       2.401500      2.212653      0.219435
  C      -3.791354      1.846894      0.987822
  O      -4.213183      1.814405     -0.154193
  N      -4.299012      2.517051      2.028523
  C      -5.407659      3.441578      1.810869
  C      -3.747658      2.473321      3.383169
  H      -3.245067      1.528385      3.566047
  H      -4.572242      2.571802      4.088597
  H      -3.046646      3.295765      3.547538
  H      -5.676921      3.452606      0.759607
  H      -5.112464      4.446743      2.119860
  H      -6.269976      3.130384      2.403808
  H      -0.969807     -2.631136     -1.853888
  H      -4.030882     -0.843285      0.537640
  H      -3.292074     -2.674392     -0.959214
  H       1.150975     -1.616030     -2.046983
  H       2.786431      0.167809     -1.457594
  H       0.450185      3.941610      2.397036
  H       2.742083      3.988826      1.422339
  H       3.387122      2.182561     -0.223404
  H      -1.027206      2.251051      1.771195
35
Coordinates from ORCA-job HBQ-H_ES E -878.780965499951
  C      -3.039836     -0.800965      0.077461
  C      -2.627212     -1.837104     -0.750850
  C      -1.325372     -1.836052     -1.207159
  C      -2.157404      0.233383      0.452492
  C      -0.803324      0.257995      0.045072
  O      -2.627402      1.191851      1.304930
  C      -0.403455     -0.807624     -0.828447
  C       0.897606     -0.845221     -1.333970
  C       1.814171      0.134112     -0.983108
  C       0.168963      1.240577      0.415011
  C       1.476123      1.192193     -0.101808
  N      -0.125398      2.274027      1.295213
  C       0.798950      3.233948      1.648350
  C       2.067782      3.200590      1.142872
  C       2.437819      2.176057      0.256696
  C      -3.843626      1.831745      0.991281
  O      -4.318639      1.757807     -0.126194
  N      -4.317142      2.504162      2.043597
  C      -5.473784      3.378360      1.867270
  C      -3.689417      2.515064      3.365683
  H      -3.133066      1.599245      3.536732
  H      -4.477635      2.589774      4.113714
  H      -3.021790      3.373410      3.473105
  H      -5.800767      3.349404      0.833276
  H      -5.202216      4.401577      2.134427
  H      -6.286779      3.048423      2.516280
  H      -0.970838     -2.623246     -1.859597
  H      -4.048600     -0.780922      0.464788
  H      -3.314928     -2.625109     -1.022154
  H       1.176972     -1.649328     -2.001765
  H       2.822096      0.101684     -1.377543
  H       0.449890      3.989214      2.335286
  H       2.769646      3.968592      1.435097
  H       3.433488      2.120381     -0.158112
  H      -1.043804      2.312775      1.703884
35
Coordinates from ORCA-job HBQ-H_ES E -878.781208931550
  C      -3.052160     -0.765192      0.024304
  C      -2.635514     -1.810072     -0.790374
  C      -1.324865     -1.830478     -1.213907
  C      -2.166546      0.264067      0.411347
  C      -0.804454      0.270273      0.029800
  O      -2.628506      1.227611      1.258476
  C      -0.397462     -0.812116     -0.821850
  C       0.916773     -0.877257     -1.291002
  C       1.837224      0.092518     -0.925504
  C       0.169861      1.250050      0.401386
  C       1.490774      1.171919     -0.074962
  N      -0.138781      2.313619      1.239212
  C       0.790571      3.268571      1.593492
  C       2.073069      3.200464      1.131853
  C       2.458019      2.149116      0.285754
  C      -3.871431      1.848690      0.984293
  O      -4.373992      1.777265     -0.118653
  N      -4.323446      2.497767      2.058095
  C      -5.505664      3.346490      1.928113
  C      -3.656515      2.509174      3.361094
  H      -3.067805      1.609369      3.501823
  H      -4.424189      2.548923      4.132323
  H      -3.014234      3.387137      3.459617
  H      -5.865501      3.318055      0.905563
  H      -5.247901      4.372584      2.196025
  H      -6.287531      2.991497      2.600980
  H      -0.962159     -2.627907     -1.848736
  H      -4.063295     -0.736733      0.401424
  H      -3.325377     -2.592782     -1.070369
  H       1.209247     -1.691699     -1.939626
  H       2.854621      0.033332     -1.290867
  H       0.427851      4.049486      2.243344
  H       2.776764      3.966353      1.425209
  H       3.463774      2.069296     -0.098016
  H      -1.070151      2.381390      1.612147
35
Coordinates from ORCA-job HBQ-H_ES E -878.781357650020
  C      -3.059941     -0.729334     -0.005386
  C      -2.642308     -1.781315     -0.810104
  C      -1.326482     -1.820557     -1.210921
  C      -2.170608      0.292869      0.389274
  C      -0.802125      0.284604      0.021260
  O      -2.627925      1.265647      1.222924
  C      -0.393945     -0.811005     -0.811558
  C       0.928668     -0.900389     -1.257183
  C       1.854620      0.058699     -0.887125
  C       0.179295      1.261375      0.389446
  C       1.507336      1.156452     -0.060662
  N      -0.129157      2.348358      1.195144
  C       0.806191      3.295332      1.547889
  C       2.096678      3.198812      1.114587
  C       2.482152      2.126315      0.298477
  C      -3.892785      1.864302      0.977725
  O      -4.406841      1.799851     -0.117878
  N      -4.337961      2.488093      2.068190
  C      -5.540608      3.312962      1.969430
  C      -3.654939      2.495765      3.363099
  H      -3.037636      1.612380      3.480372
  H      -4.414057      2.498417      4.143705
  H      -3.039755      3.391785      3.468407
  H      -5.917689      3.289321      0.953213
  H      -5.299396      4.340430      2.246415
  H      -6.301570      2.932189      2.651717
  H      -0.960625     -2.625998     -1.833509
  H      -4.074814     -0.690584      0.359883
  H      -3.336562     -2.557107     -1.098180
  H       1.225250     -1.724530     -1.891219
  H       2.877115     -0.023680     -1.232962
  H       0.439405      4.095077      2.171963
  H       2.805909      3.959972      1.406800
  H       3.493075      2.025015     -0.065604
  H      -1.066896      2.441259      1.544181
35
Coordinates from ORCA-job HBQ-H_ES E -878.781463741734
  C      -3.067100     -0.692837     -0.026837
  C      -2.649398     -1.756511     -0.816223
  C      -1.328748     -1.815510     -1.197929
  C      -2.173071      0.324083      0.367878
  C      -0.799430      0.299516      0.010114
  O      -2.620880      1.309095      1.186170
  C      -0.391142     -0.811393     -0.797793
  C       0.938799     -0.925073     -1.219708
  C       1.870002      0.025611     -0.850004
  C       0.186697      1.274421      0.371897
  C       1.520972      1.143868     -0.051547
  N      -0.122659      2.385507      1.143045
  C       0.815976      3.327083      1.494425
  C       2.114884      3.204465      1.090678
  C       2.500503      2.109918      0.306102
  C      -3.898528      1.897141      0.963929
  O      -4.413035      1.858059     -0.131328
  N      -4.346490      2.479598      2.075273
  C      -5.562008      3.289653      2.006860
  C      -3.663953      2.454592      3.370260
  H      -3.022997      1.584264      3.453696
  H      -4.423250      2.406942      4.149459
  H      -3.073646      3.362492      3.509602
  H      -5.943834      3.291891      0.992078
  H      -5.333998      4.311378      2.314724
  H      -6.313320      2.876451      2.680909
  H      -0.961796     -2.632374     -1.804888
  H      -4.086122     -0.641939      0.325334
  H      -3.348732     -2.527019     -1.106687
  H       1.236401     -1.762599     -1.835656
  H       2.897390     -0.078097     -1.175168
  H       0.445608      4.145223      2.092151
  H       2.828397      3.962158      1.381475
  H       3.516672      1.988353     -0.037035
  H      -1.067095      2.502372      1.466553
35
Coordinates from ORCA-job HBQ-H_ES E -878.781511799274
  C      -3.073307     -0.662479     -0.041824
  C      -2.656565     -1.737566     -0.816135
  C      -1.332255     -1.812026     -1.185070
  C      -2.174249      0.350282      0.351008
  C      -0.796820      0.312080      0.001092
  O      -2.615157      1.345119      1.156754
  C      -0.390096     -0.810558     -0.787303
  C       0.943929     -0.941975     -1.192367
  C       1.879912      0.003553     -0.824565
  C       0.192390      1.284614      0.358928
  C       1.530661      1.136072     -0.046513
  N      -0.115889      2.411549      1.108306
  C       0.825962      3.348750      1.460146
  C       2.129979      3.208554      1.075804
  C       2.513485      2.099567      0.311011
  C      -3.904120      1.918718      0.952711
  O      -4.419275      1.897296     -0.142681
  N      -4.353465      2.471660      2.077897
  C      -5.578959      3.268825      2.032478
  C      -3.667235      2.424459      3.370223
  H      -3.004016      1.568606      3.425558
  H      -4.423082      2.334515      4.149255
  H      -3.099335      3.342343      3.534978
  H      -5.966451      3.288135      1.019892
  H      -5.361212      4.286494      2.360855
  H      -6.321541      2.832429      2.701684
  H      -0.966656     -2.638827     -1.779373
  H      -4.096350     -0.600143      0.297579
  H      -3.360356     -2.504475     -1.105735
  H       1.238926     -1.790764     -1.794273
  H       2.910557     -0.113785     -1.134632
  H       0.455870      4.178298      2.042256
  H       2.847050      3.962847      1.366592
  H       3.532871      1.963926     -0.017727
  H      -1.064132      2.544686      1.415000
35
Coordinates from ORCA-job HBQ-H_ES E -878.781535721327
  C      -3.075984     -0.648024     -0.045943
  C      -2.660370     -1.730152     -0.811009
  C      -1.334750     -1.811575     -1.176715
  C      -2.173610      0.363036      0.344138
  C      -0.794570      0.317196     -0.001996
  O      -2.610877      1.364905      1.142155
  C      -0.389936     -0.810236     -0.782774
  C       0.944697     -0.948042     -1.183447
  C       1.883223     -0.003334     -0.818693
  C       0.195605      1.287839      0.354731
  C       1.534850      1.133585     -0.047139
  N      -0.110828      2.418808      1.100229
  C       0.833089      3.353882      1.452792
  C       2.137999      3.208923      1.071624
  C       2.518774      2.096506      0.310128
  C      -3.904585      1.930484      0.945893
  O      -4.420984      1.913362     -0.149639
  N      -4.356849      2.469713      2.076273
  C      -5.588899      3.256957      2.040394
  C      -3.667903      2.415317      3.366831
  H      -2.987540      1.572256      3.407096
  H      -4.420246      2.298328      4.145808
  H      -3.117295      3.341240      3.545068
  H      -5.979220      3.281514      1.028930
  H      -5.378892      4.273746      2.376580
  H      -6.326287      2.808910      2.707710
  H      -0.971900     -2.643589     -1.765439
  H      -4.101251     -0.579284      0.285557
  H      -3.366502     -2.496087     -1.097534
  H       1.235475     -1.802225     -1.779896
  H       2.914814     -0.123413     -1.124543
  H       0.465827      4.185630      2.033593
  H       2.856827      3.961387      1.362652
  H       3.538724      1.956732     -0.015610
  H      -1.059555      2.556485      1.404003
35
Coordinates from ORCA-job HBQ-H_ES E -878.781545059917
  C      -3.076099     -0.643738     -0.044408
  C      -2.660928     -1.729040     -0.805151
  C      -1.335363     -1.812280     -1.171450
  C      -2.172579      0.367482      0.343409
  C      -0.792849      0.318648     -0.001049
  O      -2.609054      1.372914      1.137749
  C      -0.389619     -0.810241     -0.780619
  C       0.944211     -0.948963     -1.183027
  C       1.883731     -0.003439     -0.821247
  C       0.197909      1.288329      0.354934
  C       1.536768      1.133542     -0.049776
  N      -0.106299      2.419265      1.102182
  C       0.839314      3.353456      1.453661
  C       2.143165      3.208408      1.069059
  C       2.521438      2.096463      0.305541
  C      -3.904196      1.934967      0.943708
  O      -4.418104      1.923442     -0.153543
  N      -4.359943      2.469185      2.074967
  C      -5.592894      3.254517      2.039393
  C      -3.673646      2.410764      3.366782
  H      -2.983251      1.575787      3.400686
  H      -4.426089      2.277895      4.143190
  H      -3.134081      3.341283      3.554687
  H      -5.981660      3.281259      1.027381
  H      -5.385156      4.270740      2.378674
  H      -6.330760      2.803459      2.704138
  H      -0.974553     -2.646371     -1.758467
  H      -4.102089     -0.573168      0.284041
  H      -3.367565     -2.495638     -1.088555
  H       1.231617     -1.805012     -1.778423
  H       2.915054     -0.122013     -1.128509
  H       0.475167      4.184741      2.037057
  H       2.862957      3.960362      1.358927
  H       3.540656      1.956509     -0.022518
  H      -1.054139      2.557266      1.408387
35
Coordinates from ORCA-job HBQ-H_ES E -878.781549180598
  C      -3.075903     -0.639480     -0.042092
  C      -2.661851     -1.726517     -0.800953
  C      -1.336662     -1.811427     -1.167886
  C      -2.171139      0.371229      0.344362
  C      -0.791342      0.320131      0.000791
  O      -2.607004      1.379472      1.135812
  C      -0.389768     -0.809745     -0.779060
  C       0.943173     -0.949241     -1.183919
  C       1.883666     -0.003540     -0.824242
  C       0.200690      1.288419      0.356262
  C       1.538826      1.133041     -0.051578
  N      -0.101024      2.418652      1.105658
  C       0.846505      3.351700      1.455611
  C       2.149007      3.206368      1.067249
  C       2.524930      2.095082      0.301696
  C      -3.902523      1.939463      0.941958
  O      -4.415962      1.927295     -0.155693
  N      -4.362424      2.469541      2.073440
  C      -5.598582      3.249466      2.037461
  C      -3.678573      2.411161      3.366502
  H      -2.976180      1.586172      3.395779
  H      -4.430543      2.261998      4.140484
  H      -3.152746      3.347916      3.562158
  H      -5.986415      3.275457      1.025105
  H      -5.395656      4.266249      2.377964
  H      -6.335220      2.794548      2.700927
  H      -0.977738     -2.646724     -1.754330
  H      -4.102097     -0.567500      0.285376
  H      -3.369107     -2.493240     -1.082418
  H       1.228049     -1.806114     -1.779290
  H       2.914395     -0.121192     -1.133817
  H       0.485114      4.182632      2.041210
  H       2.869902      3.957796      1.355764
  H       3.543221      1.954883     -0.029052
  H      -1.047949      2.556830      1.414573
35
Coordinates from ORCA-job HBQ-H_ES E -878.781554709168
  C      -3.075392     -0.638400     -0.039626
  C      -2.661922     -1.726020     -0.798041
  C      -1.337195     -1.811370     -1.165764
  C      -2.170183      0.372324      0.345542
  C      -0.790686      0.320384      0.002393
  O      -2.605562      1.382745      1.134721
  C      -0.389856     -0.809860     -0.778318
  C       0.942412     -0.948978     -1.185632
  C       1.882943     -0.002710     -0.827367
  C       0.202037      1.287855      0.357768
  C       1.539451      1.133020     -0.052904
  N      -0.098368      2.416584      1.109620
  C       0.850122      3.349243      1.458135
  C       2.151442      3.204746      1.066271
  C       2.526417      2.094539      0.298782
  C      -3.900976      1.941521      0.940994
  O      -4.413055      1.931291     -0.157358
  N      -4.363178      2.470288      2.072170
  C      -5.600372      3.248355      2.035002
  C      -3.682341      2.411978      3.366705
  H      -2.967032      1.598107      3.391384
  H      -4.433734      2.245215      4.137780
  H      -3.171878      3.355413      3.570649
  H      -5.987817      3.272813      1.022498
  H      -5.399181      4.265706      2.374853
  H      -6.336582      2.792813      2.698513
  H      -0.979296     -2.647188     -1.752099
  H      -4.101421     -0.566282      0.288366
  H      -3.369220     -2.493181     -1.078191
  H       1.226186     -1.805877     -1.781429
  H       2.913077     -0.119005     -1.139447
  H       0.490249      4.179501      2.045625
  H       2.872724      3.956259      1.353704
  H       3.543934      1.954959     -0.034439
  H      -1.044678      2.553993      1.420951
35
Coordinates from ORCA-job HBQ-H_ES E -878.781561925221
  C      -3.075064     -0.635680     -0.037118
  C      -2.662802     -1.723856     -0.795443
  C      -1.338520     -1.810329     -1.163630
  C      -2.169034      0.374713      0.346355
  C      -0.789916      0.321463      0.003551
  O      -2.603609      1.387451      1.133078
  C      -0.390239     -0.809686     -0.777380
  C       0.941528     -0.949678     -1.186276
  C       1.882486     -0.003627     -0.829280
  C       0.204325      1.287816      0.358632
  C       1.540962      1.132172     -0.053837
  N      -0.094310      2.415691      1.111927
  C       0.855399      3.347782      1.458332
  C       2.155731      3.202682      1.064104
  C       2.529602      2.092393      0.296232
  C      -3.898768      1.945155      0.939627
  O      -4.409541      1.937058     -0.159310
  N      -4.363837      2.471281      2.070991
  C      -5.603448      3.245503      2.033266
  C      -3.687803      2.412503      3.367787
  H      -2.950231      1.618705      3.384275
  H      -4.437295      2.214599      4.133571
  H      -3.204751      3.366979      3.586392
  H      -5.991353      3.267596      1.020927
  H      -5.405414      4.263748      2.372304
  H      -6.337838      2.788141      2.697546
  H      -0.981575     -2.646919     -1.749466
  H      -4.100594     -0.563032      0.292429
  H      -3.370508     -2.490959     -1.074710
  H       1.224678     -1.806808     -1.781977
  H       2.911984     -0.120184     -1.143397
  H       0.496783      4.178351      2.046153
  H       2.877737      3.954065      1.350184
  H       3.546445      1.952234     -0.038570
  H      -1.040140      2.553456      1.424539
35
Coordinates from ORCA-job HBQ-H_ES E -878.781567671162
  C      -3.075097     -0.633669     -0.035934
  C      -2.664010     -1.722022     -0.794647
  C      -1.339874     -1.809455     -1.163020
  C      -2.168244      0.376219      0.346451
  C      -0.789462      0.322017      0.003496
  O      -2.601953      1.390126      1.132101
  C      -0.390701     -0.809735     -0.777080
  C       0.941026     -0.950953     -1.185886
  C       1.882474     -0.005619     -0.829199
  C       0.205874      1.287719      0.358386
  C       1.542127      1.130890     -0.053928
  N      -0.091938      2.415553      1.111792
  C       0.858157      3.347700      1.456633
  C       2.158336      3.201485      1.062372
  C       2.531863      2.090191      0.295662
  C      -3.896672      1.947796      0.938949
  O      -4.406632      1.941508     -0.160352
  N      -4.363012      2.472733      2.070491
  C      -5.604697      3.243800      2.032764
  C      -3.691562      2.413048      3.369354
  H      -2.930197      1.642075      3.376918
  H      -4.437593      2.181140      4.129252
  H      -3.238839      3.378508      3.603849
  H      -5.994211      3.262915      1.021004
  H      -5.408858      4.263107      2.369926
  H      -6.336731      2.785598      2.699094
  H      -0.983291     -2.646434     -1.748549
  H      -4.100116     -0.560303      0.295202
  H      -3.372283     -2.488569     -1.074016
  H       1.224477     -1.808197     -1.781280
  H       2.911690     -0.123623     -1.143745
  H       0.499565      4.179151      2.043227
  H       2.880712      3.952855      1.347620
  H       3.548591      1.949013     -0.038952
  H      -1.037847      2.554215      1.423859
35
Coordinates from ORCA-job HBQ-H_ES E -878.781573841435
  C      -3.075440     -0.632834     -0.036332
  C      -2.665276     -1.720939     -0.795827
  C      -1.341031     -1.808912     -1.164209
  C      -2.167937      0.376515      0.345948
  C      -0.789325      0.321897      0.002407
  O      -2.601053      1.389870      1.132577
  C      -0.391195     -0.809959     -0.777616
  C       0.940831     -0.952430     -1.185014
  C       1.882904     -0.008216     -0.827591
  C       0.206575      1.287375      0.357338
  C       1.542886      1.129252     -0.053297
  N      -0.091181      2.415899      1.109849
  C       0.858629      3.348589      1.453869
  C       2.159358      3.200951      1.061529
  C       2.533008      2.088091      0.296953
  C      -3.895097      1.948860      0.939438
  O      -4.405180      1.942777     -0.159819
  N      -4.360839      2.475111      2.070733
  C      -5.604343      3.243453      2.033179
  C      -3.693334      2.414594      3.371329
  H      -2.907971      1.668224      3.369972
  H      -4.434186      2.147975      4.125214
  H      -3.272237      3.390266      3.621693
  H      -5.996518      3.258414      1.022384
  H      -5.409922      4.264195      2.366836
  H      -6.333522      2.785655      2.702961
  H      -0.984243     -2.645732     -1.749855
  H      -4.100046     -0.558735      0.296003
  H      -3.374121     -2.486640     -1.076070
  H       1.225172     -1.809553     -1.780208
  H       2.912197     -0.128445     -1.141057
  H       0.499144      4.181258      2.038184
  H       2.881810      3.952358      1.346464
  H       3.550100      1.945683     -0.036065
  H      -1.037547      2.555911      1.419908
35
Coordinates from ORCA-job HBQ-H_ES E -878.781577874763
  C      -3.075693     -0.634948     -0.037836
  C      -2.665429     -1.722133     -0.798517
  C      -1.340995     -1.809376     -1.167028
  C      -2.168351      0.374244      0.345739
  C      -0.789731      0.320524      0.001305
  O      -2.601658      1.385234      1.135315
  C      -0.391386     -0.810422     -0.779059
  C       0.940986     -0.952716     -1.185190
  C       1.883219     -0.009116     -0.826286
  C       0.205611      1.286440      0.356632
  C       1.542328      1.128406     -0.052455
  N      -0.093023      2.415444      1.108447
  C       0.855852      3.348977      1.452954
  C       2.157342      3.201189      1.062647
  C       2.531640      2.087718      0.299194
  C      -3.894797      1.946805      0.941367
  O      -4.405980      1.938406     -0.157394
  N      -4.357955      2.477887      2.071484
  C      -5.601680      3.245879      2.033396
  C      -3.691799      2.417646      3.372685
  H      -2.894910      1.683707      3.367332
  H      -4.429278      2.134802      4.124140
  H      -3.286065      3.398009      3.629831
  H      -5.996006      3.256980      1.023383
  H      -5.406738      4.267886      2.362856
  H      -6.329361      2.790473      2.706476
  H      -0.983507     -2.645225     -1.753619
  H      -4.100233     -0.560971      0.294661
  H      -3.374299     -2.487392     -1.079899
  H       1.226246     -1.809198     -1.780920
  H       2.912842     -0.130319     -1.138266
  H       0.495111      4.182023      2.035954
  H       2.879369      3.952806      1.348008
  H       3.549261      1.945197     -0.032309
  H      -1.039864      2.555914      1.416782
35
Coordinates from ORCA-job HBQ-H_ES E -878.781579305799
  C      -3.075743     -0.637511     -0.039281
  C      -2.664864     -1.723916     -0.800713
  C      -1.340308     -1.810266     -1.169233
  C      -2.168897      0.371703      0.345899
  C      -0.790138      0.319057      0.000899
  O      -2.602594      1.380365      1.138239
  C      -0.391268     -0.810955     -0.780177
  C       0.941254     -0.952466     -1.185877
  C       1.883381     -0.008896     -0.825937
  C       0.204373      1.285475      0.356506
  C       1.541484      1.128155     -0.052075
  N      -0.095025      2.414705      1.107972
  C       0.853169      3.348736      1.453257
  C       2.155069      3.201484      1.063837
  C       2.529803      2.088197      0.300414
  C      -3.894949      1.944426      0.943419
  O      -4.407217      1.933433     -0.154825
  N      -4.355671      2.480459      2.072180
  C      -5.598993      3.248907      2.033113
  C      -3.690235      2.420282      3.373752
  H      -2.889112      1.691060      3.367130
  H      -4.426450      2.131671      4.124322
  H      -3.290053      3.402268      3.633306
  H      -5.994067      3.257711      1.023368
  H      -5.403274      4.271646      2.359807
  H      -6.326485      2.795612      2.707849
  H      -0.982321     -2.645240     -1.756737
  H      -4.100505     -0.564037      0.292501
  H      -3.373480     -2.489175     -1.082744
  H       1.226723     -1.808436     -1.782260
  H       2.913294     -0.129801     -1.137020
  H       0.491820      4.181567      2.036180
  H       2.876699      3.953278      1.349644
  H       3.547715      1.946183     -0.030553
  H      -1.042059      2.555101      1.415648
