! B3LYP/G OPT FREQ 6-311G* CPCM(Water)

* xyz 0 1 
C  -3.42835598041479716613 -0.98189617742141321877 -0.40937175247591128802
C  -2.88943429417101160794 -1.87182895790464942642 -1.33565676067144312178
C  -1.55843868163791676729 -1.79930513591762131220 -1.65746476942635534435
C  -2.62481963052731170905 -0.05279036204188614079 0.21582180148637758466
C  -1.24065043558521614919 0.00801932574592068015 -0.04645775642142402351
O  -3.23984703057650635927 0.79508962521827730718 1.12369343283635059194
C  -0.71891660613185559559 -0.86407565246148254623 -1.03285982615081839420
C  0.65713771937492770903 -0.77855415302509545228 -1.39539803338011236811
C  1.48307568763422681357 0.12461001396713600187 -0.82156700276752259171
C  -0.34022483984848883587 0.90699085327483319752 0.62865414670548136478
C  1.01049760024486490195 0.98415244193825213159 0.20817496915706135141
N  -0.79044824008192304809 1.64001263266328778379 1.65776378131940083094
C  0.01768364492327312298 2.48799289943862333985 2.24648748252856522711
C  1.34869660694332749173 2.68076651846005020730 1.87121129746362480084
C  1.84858393250286257015 1.90803515466895667885 0.85189132824924984622
C  -3.10031036290498374086 2.13362282592975294193 0.91800182416147513287
O  -2.73390241653861654214 2.60698251268953606896 -0.15071247683684274588
N  -3.52277306756698393997 2.86916196433364234508 1.94830268580414389668
C  -3.90840575155498193283 2.32171680997805918167 3.23009517756779729325
C  -3.43498228856124043773 4.31153620333593856628 1.83320883027556091882
H  -4.12139920235599355181 4.67203398305714756589 1.06540051384265588297
H  -2.42437196979890856596 4.60556752077576714299 1.54409781366376086531
H  -3.68898743811600571263 4.75345514238131272577 2.79059976556211442045
H  -3.98379007913252447537 1.24188112400999650653 3.15514742711219575710
H  -4.87445746464801210607 2.73443540232574378024 3.51962943788200721684
H  -3.16273453564188145037 2.57578280422981986675 3.98499961736920393918
H  -1.13613209999494579883 -2.45904518398553939562 -2.39933625699696495559
H  -4.48076683826513377795 -0.99685765507921231254 -0.17307797428030058384
H  -3.53207313142267764761 -2.59532207843492290777 -1.81125676374193900209
H  1.01832610758350705638 -1.45089801275446084183 -2.15845113882072148215
H  2.51873600518737505993 0.20527252462340550565 -1.11603578833145888893
H  -0.41588131527234795115 3.04202641235919335472 3.06824842669455311039
H  1.95908711322932349574 3.40621345411626830213 2.38380862360505396680
H  2.87842928370989215026 1.99305522810478308315 0.53678791133427639082
*
