! B3LYP/G Def2-TZVP(-f) Def2-TZVP/C Def2/J RIJCOSX TightSCF ESD(FLUOR) CPCM(Water) AllPop SOSCF
%maxcore 5000
%tddft
  nroots 5
  iroot 1
end

%esd
  GSHESSIAN "HBQ-H_GS.hess"
  ESHESSIAN "HBQ-H_ES.hess"
  DOHT TRUE
  LINES VOIGT
  LINEW 50
  INLINEW 200
end

%output
  print[p_mos] true
  print[p_basis] 5
end

* xyz 1 1
  C   -3.01702790775114     -0.84514476634390      0.12957078983516
  C   -2.56834167641945     -1.87168481643337     -0.70651470281704
  C   -1.27466347952566     -1.86754735564888     -1.17360434664761
  C   -2.17076631829237      0.17991799970713      0.48391261263324
  C   -0.82605043383854      0.21740449786757      0.03942599316776
  O   -2.61701385884328      1.16243586308769      1.35849640776159
  C   -0.38624596360050     -0.84007305502502     -0.81255310095355
  C   0.95633399035683     -0.85677031968754     -1.30841131280784
  C   1.84362239640369      0.11407723490934     -0.99362325501502
  C   0.13997808553778      1.23031723957669      0.37663275551036
  C   1.45819552475718      1.18821236494597     -0.13667094398183
  N   -0.16520440635224      2.26560451897377      1.20771289876579
  C   0.68195853278582      3.23669674806510      1.55149595037176
  C   1.97461010867338      3.23550371047868      1.05799924611902
  C   2.35593372969712      2.20822178427984      0.21948344407345
  C   -3.76258664106815      1.89746342976417      1.00841642707208
  O   -4.17709062191754      1.91832268410798     -0.13305089679644
  N   -4.25744186614365      2.55606554957414      2.06303077203014
  C   -5.36110402650877      3.49084571139698      1.86226291202136
  C   -3.77425715657713      2.43269514623701      3.43703156703941
  H   -3.11276030804584      1.58073949409095      3.53887911628619
  H   -4.63270058306687      2.29543337230213      4.09583278477734
  H   -3.24716522270643      3.34145469862870      3.73593237898693
  H   -5.57136393818305      3.58849900158363      0.80286004866652
  H   -5.08751745343689      4.46518324606206      2.27082299621717
  H   -6.25322045348352      3.13117001672022      2.37882917192891
  H   -0.91967850108308     -2.65759796532696     -1.82220280993340
  H   -4.03118654807741     -0.84753217114517      0.50371556918027
  H   -3.24697209952434     -2.66907476871570     -0.97896337900189
  H   1.24548778858810     -1.67623876422422     -1.95393946954274
  H   2.85595049516685      0.09800300229614     -1.37510673116412
  H   0.29621092925558      3.99102366369855      2.22108492349752
  H   2.65609448900128      4.02472750966881      1.33782082960180
  H   3.36268174798186      2.17396042766826     -0.17767311464768
  H   -1.10562835375948      2.27847506685917      1.59286446776533
*

