! B3LYP/G OPT FREQ 6-311G* CPCM(Water)

%tddft
    NRoots 3
    IRoot 1
end 

* xyz 0 1 
C  -3.35376279992966619403 -0.62938332631936966255 -0.98291902019988841577
C  -2.74163567778435490752 -1.65396753206475333187 -1.70083327012608154227
C  -1.37556057110036400459 -1.77361463115568529503 -1.68985554185761888135
C  -2.59377832163920052366 0.28947157483868263261 -0.29126838017414902193
C  -1.18518256682654898881 0.23058864571862797144 -0.30793397495779634143
O  -3.28313576694100017761 1.27891215907834410181 0.39253390567276319478
C  -0.57974430809541521725 -0.84984392244581397069 -0.99518280783768264808
C  0.83765897162851232771 -0.99941651125977515324 -0.96694484835660599042
C  1.62532363545541747030 -0.13324257704872946584 -0.29134679365287491359
C  -0.33981572169269685935 1.20155618808551678534 0.33794909142459522711
C  1.06099378317829384777 0.99155102761471525241 0.37121776928827338038
N  -0.89160482556474629501 2.29709441070834641252 0.88020448050241895110
C  -0.12737892844849171836 3.16172913775715436202 1.50218360694920360920
C  1.25508534142907479669 3.02054943705290490641 1.63709383834394195389
C  1.85145982118581375886 1.93049095025746342280 1.05206844754513428875
C  -3.04214894254066781087 1.40620577357731368906 1.72629620845151654507
O  -2.49568855261252986466 0.53024716228100599036 2.38580922339505407948
N  -3.57862348866780832779 2.51502633883670112525 2.24077142925116401528
C  -3.46729674865841852593 2.78653267554346806278 3.65577445111836807357
C  -4.19915828413403158237 3.55718519172478275792 1.45473877439351650942
H  -4.19595577246243678360 3.28081188523075040209 0.40597626620533888708
H  -3.64686879558558540992 4.48869862025915988823 1.58512593768511966807
H  -5.22622419340026755918 3.70114038984416060529 1.79233111571136438656
H  -2.97556703009237244473 1.94347967362822404702 4.13612545209459003814
H  -4.46095812968806182397 2.92338571226544274850 4.08294430685029841044
H  -2.87785541639052455665 3.69005593182455582379 3.81659500312575428183
H  -0.89127192018300471776 -2.58341459768552850207 -2.21303302893003905893
H  -4.42821531638336018943 -0.54075895530933260069 -0.94729975834403012946
H  -3.35144855982815181861 -2.36092499855638804362 -2.24025591010660996005
H  1.26473192443005877372 -1.84010580558807324003 -1.49198213931114054276
H  2.69645568134601498755 -0.26306532522173181610 -0.25034568316961969270
H  -0.64266899218879569577 4.01984478260729538590 1.91199369323563916900
H  1.82759222514087293909 3.75875270627759405784 2.17456109445499290445
H  2.92040825966053807505 1.78225782008492328323 1.10128704506063868074
*
