! B3LYP/G OPT FREQ 6-311G* CPCM(Water)

%tddft
    NRoots 3
    IRoot 1
end 

* xyz 1 1 
C  -3.46166682152925853089 -0.93042166845883023107 0.61748870045306814003
C  -3.76108454006642212164 -1.84079545928938093091 1.63221226749989734017
C  -2.98730665896191460718 -1.90858169048472192664 2.76415205531028540520
C  -2.44372720704463786134 -0.01893531544961479796 0.78468607659446654168
C  -1.70013293837695167454 0.00813538301306260259 1.99046697298728636483
O  -1.96896916859885640072 0.79786940703632414085 -0.21359198064352991064
C  -1.92203355592124736084 -1.01673673646829176853 2.94732429034334719731
C  -1.01628754288952327656 -1.16443438687311506818 4.03826801887009612102
C  0.10389470752963481104 -0.40964219995005968222 4.12639843920432980440
C  -0.66614414432906421393 0.95383052103060195215 2.24190382548949473929
C  0.32142596138921741833 0.66938452795672698237 3.22273069496516484378
N  -0.59530533209281322193 2.13991657936373469440 1.57846552644456661341
C  0.51560851324311052224 2.88735459360123991601 1.61758127825349573570
C  1.59284831097228174457 2.54491179148806478949 2.40735523437160070515
C  1.46011775116463793367 1.48116866987990003501 3.28211818241679642583
C  -2.70546389565186551351 1.10940631749414242435 -1.33531063877500688619
O  -3.92518953932576764032 1.13931675047019753677 -1.33884842366607781372
N  -1.92424642369647558304 1.39409704571961734487 -2.37245919856416520588
C  -0.47692001416417983961 1.38037175354231944624 -2.33120662847405757390
C  -2.50796396875972282814 1.88884270253319641597 -3.60075690621166799588
H  -3.58428391126916512377 1.98149847207602425314 -3.47269736822215691063
H  -2.30257711338566473103 1.19335630117761648528 -4.41520237115369251768
H  -2.08149899522469539193 2.86129780050974691363 -3.84488287163888564635
H  -0.12749011292179557309 0.72156469247070220696 -1.54225001398895411597
H  -0.09813675976356983632 2.38780259204671851947 -2.15809090270808967560
H  -0.11264044863032074417 1.01856140708729481226 -3.29114468022758988042
H  -3.17668565194638174987 -2.66215259625558609002 3.51161190369639353293
H  -4.02977703554956079302 -0.93866604780060192148 -0.29873495459110366301
H  -4.58366485558634551012 -2.52322729568691261903 1.48984812341196004581
H  -1.21710957662827001791 -1.94430950997153728643 4.75536073223541944088
H  0.84064603221636646779 -0.58861273980369532843 4.89252878127872481429
H  0.49595581834003499289 3.78885462600885336570 1.02367559198411250954
H  2.48473932217224824370 3.14852602358090338797 2.38849287127968645805
H  2.22244849181803960647 1.26731605384810985804 4.01519971300953493198
P  -2.06688450038424775812 3.03028596376686776281 1.16943467882991791740
O  -3.31832378056205667960 2.37484644849372594777 1.55689732070951469822
O  -1.78529166867905164651 3.42795071210395896344 -0.31759644257474028972
O  -1.82314814554427240267 4.38212015509753261000 1.96745765553176554796
C  -2.06928229959779219627 4.73447038010883503034 -0.86562036902097327928
C  -2.44078535470616353464 4.59071579799136930689 3.24212485199288913407
C  -0.84490581910815110156 5.62572623075266342596 -0.78859152873096560743
H  -2.91778502762551150695 5.17799372929979639935 -0.33988344859323948999
H  -2.35773817434916477254 4.54294545613075051449 -1.90080830783545140505
H  -1.05180274923232941475 6.55608826023920965298 -1.30958641813144271993
H  0.00322913974696370509 5.14078930572666958909 -1.26397205569925663582
H  -0.60546787309148764056 5.85214802907698494749 0.24675514804009934799
C  -1.70596405134988526875 3.85667705100357238734 4.34733269414745393533
H  -3.48168882600627282997 4.25807608274025994888 3.18891097888280583561
H  -2.40939055302431581751 5.67117678079217402143 3.39232857022403111458
H  -1.81749186494598236052 2.78152803672821091752 4.21810458915669261870
H  -2.13365864948174976945 4.13570327101008139437 5.30565978748909028440
H  -0.65130852060531430059 4.11894994896704336185 4.34120991749416340610
*
