! B3LYP/G OPT Def2-TZVP(-f) Def2-TZVP/C Def2/J RIJCOSX TightSCF CPCM(Water) AllPop SOSCF

* xyz 1 1
   C       -3.29718        0.08009       -0.57754
   C       -2.94831       -1.25176       -0.76327
   C       -1.62327       -1.64483       -0.62052
   C       -2.32763        1.02670       -0.23980
   C       -0.97558        0.64571       -0.09955
   O       -2.73762        2.34302       -0.08843
   C       -0.64100       -0.70862       -0.29321
   C        0.67722       -1.14534       -0.16221
   C        1.68589       -0.24958        0.16663
   C        0.04489        1.56118        0.23933
   C        1.38134        1.09252        0.36945
   N       -0.02088        2.66985        0.44445
   C        0.59304        3.56849        0.71670
   C        1.96271        3.30950        0.88917
   C        2.39787        1.99616        0.70805
   C       -3.79792        2.81287        0.61524
   O       -4.43963        3.76563        0.22065
   N       -4.03014        2.23940        1.83272
   C       -5.21182        2.62287        2.62242
   C       -3.05282        1.42865        2.58379
   H       -2.04020        1.78802        2.38208
   H       -3.13894        0.38035        2.28744
   H       -3.23560        1.51033        3.65869
   H       -6.06995        2.76518        1.95948
   H       -5.00538        3.55722        3.15131
   H       -5.45505        1.83955        3.34553
   H       -1.35861       -2.68939       -0.76955
   H       -4.33440        0.38243       -0.70035
   H       -3.70950       -1.98289       -1.02389
   H        0.92628       -2.19290       -0.31588
   H        2.70958       -0.60264        0.26670
   H        0.18834        4.57130        0.84227
   H        2.65738        4.10272        1.15388
   H        3.43881        1.70436        0.82230
   H       -0.95085        2.87464        0.07772
*

