34
Coordinates from ORCA-job HBQ_GS E -878.440365685095
  C      -3.294277     -0.646447     -0.618302
  C      -2.791938     -1.502492     -1.603228
  C      -1.438447     -1.542957     -1.835969
  C      -2.449692      0.158508      0.113920
  C      -1.046077      0.153697     -0.089954
  O      -3.055253      0.891740      1.129598
  C      -0.554771     -0.733836     -1.094942
  C       0.850668     -0.818480     -1.357629
  C       1.744018     -0.074256     -0.667379
  C      -0.082420      0.964439      0.641808
  C       1.302219      0.831881      0.343907
  N      -0.508822      1.833414      1.586115
  C       0.378197      2.559397      2.243247
  C       1.760196      2.490299      2.023891
  C       2.217239      1.619474      1.065255
  C      -3.314275      2.217871      0.897511
  O      -3.119881      2.743038     -0.188227
  N      -3.818432      2.825792      1.988706
  C      -4.105568      2.137722      3.242666
  C      -4.302271      4.196104      1.885003
  H      -3.988742      4.622902      0.938462
  H      -3.892638      4.789619      2.704006
  H      -5.393823      4.223507      1.948310
  H      -3.482209      1.257266      3.347373
  H      -5.157506      1.842053      3.295950
  H      -3.896385      2.818493      4.068293
  H      -1.027661     -2.201877     -2.590594
  H      -4.355185     -0.604076     -0.409987
  H      -3.469754     -2.126652     -2.170839
  H       1.181404     -1.503424     -2.128602
  H       2.805788     -0.147260     -0.869553
  H      -0.016658      3.242159      2.989208
  H       2.435800      3.111845      2.596063
  H       3.275306      1.528379      0.850295
34
Coordinates from ORCA-job HBQ_GS E -878.440365536512
  C      -3.294414     -0.646095     -0.619209
  C      -2.791939     -1.502074     -1.604083
  C      -1.438357     -1.542947     -1.836272
  C      -2.449949      0.158532      0.113454
  C      -1.046272      0.153634     -0.090071
  O      -3.055507      0.891618      1.129263
  C      -0.554753     -0.734067     -1.094881
  C       0.850766     -0.819063     -1.356966
  C       1.743981     -0.074862     -0.666525
  C      -0.082709      0.964559      0.641706
  C       1.301977      0.831676      0.344305
  N      -0.509296      1.833956      1.585528
  C       0.377639      2.560065      2.242599
  C       1.759699      2.490751      2.023730
  C       2.216922      1.619453      1.065593
  C      -3.314737      2.217726      0.897323
  O      -3.120908      2.742913     -0.188477
  N      -3.818288      2.825625      1.988832
  C      -4.104504      2.137564      3.242989
  C      -4.302151      4.195932      1.885435
  H      -3.989763      4.622431      0.938379
  H      -3.891560      4.789792      2.703709
  H      -5.393635      4.223282      1.950036
  H      -3.480391      1.257629      3.347618
  H      -5.156188      1.841100      3.296900
  H      -3.895415      2.818730      4.068319
  H      -1.027458     -2.202028     -2.590695
  H      -4.355355     -0.603443     -0.411078
  H      -3.469652     -2.125971     -2.172112
  H       1.181712     -1.504291     -2.127601
  H       2.805813     -0.148143     -0.868285
  H      -0.017393      3.243250      2.988094
  H       2.435193      3.112468      2.595840
  H       3.275039      1.528139      0.850984
34
Coordinates from ORCA-job HBQ_GS E -878.440364675160
  C      -3.294642     -0.644192     -0.621452
  C      -2.792119     -1.500180     -1.606180
  C      -1.438314     -1.542558     -1.836937
  C      -2.450186      0.159332      0.112313
  C      -1.046361      0.153742     -0.090341
  O      -3.055413      0.892000      1.128684
  C      -0.554612     -0.734615     -1.094625
  C       0.851088     -0.821081     -1.355114
  C       1.744227     -0.077241     -0.664191
  C      -0.082774      0.964765      0.641473
  C       1.301985      0.830600      0.345347
  N      -0.509587      1.835733      1.583735
  C       0.377358      2.562096      2.240443
  C       1.759570      2.491574      2.022979
  C       2.216984      1.618660      1.066361
  C      -3.315420      2.218030      0.897230
  O      -3.123445      2.743341     -0.188786
  N      -3.818544      2.825354      1.989304
  C      -4.102169      2.136940      3.243817
  C      -4.303815      4.195173      1.886497
  H      -3.995187      4.620909      0.937862
  H      -3.890953      4.790563      2.702521
  H      -5.395099      4.221400      1.954914
  H      -3.474465      1.259598      3.348963
  H      -5.152636      1.836352      3.298449
  H      -3.895421      2.819646      4.068466
  H      -1.027362     -2.202218     -2.590821
  H      -4.355626     -0.600455     -0.413672
  H      -3.469740     -2.123171     -2.175316
  H       1.182346     -1.507182     -2.124845
  H       2.806193     -0.151677     -0.864826
  H      -0.017900      3.246657      2.984585
  H       2.434987      3.113601      2.594823
  H       3.275204      1.526347      0.852721
34
Coordinates from ORCA-job HBQ_GS E -878.440364250916
  C      -3.294780     -0.644436     -0.621674
  C      -2.792122     -1.500400     -1.606342
  C      -1.438283     -1.542713     -1.836955
  C      -2.450396      0.159087      0.112200
  C      -1.046571      0.153605     -0.090357
  O      -3.055664      0.891707      1.128568
  C      -0.554682     -0.734724     -1.094581
  C       0.851044     -0.821090     -1.354959
  C       1.744072     -0.077161     -0.663977
  C      -0.083137      0.964811      0.641418
  C       1.301659      0.830728      0.345445
  N      -0.510134      1.835920      1.583486
  C       0.376688      2.562461      2.240176
  C       1.758933      2.491991      2.022875
  C       2.216516      1.618970      1.066437
  C      -3.315595      2.217756      0.897108
  O      -3.122524      2.743337     -0.188592
  N      -3.818358      2.825156      1.989298
  C      -4.102225      2.136586      3.243674
  C      -4.302644      4.195354      1.886848
  H      -3.994726      4.620694      0.937804
  H      -3.888428      4.790587      2.702311
  H      -5.393821      4.222426      1.956459
  H      -3.474071      1.259591      3.349163
  H      -5.152542      1.835398      3.297825
  H      -3.896243      2.819414      4.068402
  H      -1.027241     -2.202363     -2.590798
  H      -4.355764     -0.600698     -0.413902
  H      -3.469617     -2.123418     -2.175597
  H       1.182435     -1.507175     -2.124646
  H       2.806061     -0.151557     -0.864495
  H      -0.018698      3.247129      2.984146
  H       2.434242      3.114157      2.594695
  H       3.274765      1.526711      0.852916
34
Coordinates from ORCA-job HBQ_GS E -878.440365071521
  C      -3.294725     -0.644394     -0.621098
  C      -2.792220     -1.500311     -1.605895
  C      -1.438435     -1.542434     -1.836859
  C      -2.450178      0.159178      0.112589
  C      -1.046396      0.153702     -0.090207
  O      -3.055336      0.891945      1.128890
  C      -0.554712     -0.734441     -1.094649
  C       0.850952     -0.820654     -1.355438
  C       1.744127     -0.076876     -0.664473
  C      -0.082847      0.964705      0.641581
  C       1.301912      0.830680      0.345340
  N      -0.509646      1.835423      1.584122
  C       0.377304      2.561684      2.240972
  C       1.759502      2.491289      2.023316
  C       2.216891      1.618645      1.066455
  C      -3.315622      2.217859      0.897014
  O      -3.122589      2.743194     -0.188827
  N      -3.818740      2.825348      1.988970
  C      -4.102338      2.136881      3.243479
  C      -4.303437      4.195384      1.886203
  H      -3.996770      4.620150      0.936498
  H      -3.888337      4.791239      2.700776
  H      -5.394518      4.222287      1.957143
  H      -3.472699      1.261056      3.349943
  H      -5.152152      1.833816      3.296936
  H      -3.898243      2.820461      4.068034
  H      -1.027533     -2.201954     -2.590895
  H      -4.355664     -0.600685     -0.413108
  H      -3.469777     -2.123384     -2.175017
  H       1.182176     -1.506485     -2.125422
  H       2.806074     -0.151210     -0.865232
  H      -0.017911      3.246072      2.985283
  H       2.434937      3.113224      2.595249
  H       3.275100      1.526447      0.852706
34
Coordinates from ORCA-job HBQ_GS E -878.440366195305
  C      -3.294727     -0.643895     -0.620337
  C      -2.792525     -1.499781     -1.605324
  C      -1.438808     -1.541789     -1.836743
  C      -2.449835      0.159638      0.113102
  C      -1.046114      0.153966     -0.089956
  O      -3.054711      0.892637      1.129366
  C      -0.554816     -0.733964     -1.094707
  C       0.850751     -0.820181     -1.356033
  C       1.744226     -0.076763     -0.665052
  C      -0.082298      0.964450      0.641977
  C       1.302400      0.830364      0.345331
  N      -0.508708      1.834869      1.585014
  C       0.378520      2.560614      2.242096
  C       1.760662      2.489924      2.024130
  C       2.217659      1.617733      1.066704
  C      -3.315500      2.218355      0.896817
  O      -3.122483      2.743305     -0.189244
  N      -3.819579      2.825767      1.988323
  C      -4.102290      2.137117      3.242976
  C      -4.305220      4.195460      1.885235
  H      -4.003495      4.618286      0.933091
  H      -3.886295      4.793252      2.696470
  H      -5.395905      4.222025      1.961605
  H      -3.467021      1.265724      3.352725
  H      -5.150158      1.826958      3.293838
  H      -3.905211      2.823241      4.067061
  H      -1.028198     -2.201144     -2.591085
  H      -4.355584     -0.600069     -0.411989
  H      -3.470181     -2.122894     -2.174281
  H       1.181665     -1.505634     -2.126484
  H       2.806103     -0.151142     -0.866148
  H      -0.016347      3.244648      2.986901
  H       2.436364      3.111360      2.596298
  H       3.275810      1.525399      0.852704
34
Coordinates from ORCA-job HBQ_GS E -878.440365564736
  C      -3.294848     -0.644007     -0.620854
  C      -2.792456     -1.500017     -1.605649
  C      -1.438693     -1.542126     -1.836755
  C      -2.450117      0.159604      0.112658
  C      -1.046357      0.153924     -0.090158
  O      -3.055181      0.892521      1.128886
  C      -0.554851     -0.734201     -1.094643
  C       0.850779     -0.820521     -1.355604
  C       1.744105     -0.076955     -0.664596
  C      -0.082690      0.964612      0.641768
  C       1.302072      0.830445      0.345448
  N      -0.509296      1.835280      1.584467
  C       0.377781      2.561243      2.241501
  C       1.759963      2.490545      2.023816
  C       2.217173      1.618045      1.066770
  C      -3.315310      2.218445      0.896781
  O      -3.122131      2.743662     -0.189121
  N      -3.819131      2.825683      1.988503
  C      -4.102121      2.136664      3.242897
  C      -4.304169      4.195631      1.885967
  H      -4.002510      4.618597      0.933863
  H      -3.884786      4.792995      2.697278
  H      -5.394824      4.222627      1.962622
  H      -3.466954      1.265169      3.352472
  H      -5.150029      1.826605      3.293538
  H      -3.905054      2.822530      4.067197
  H      -1.027927     -2.201598     -2.590909
  H      -4.355760     -0.600236     -0.412770
  H      -3.470042     -2.123199     -2.174614
  H       1.181844     -1.506180     -2.125806
  H       2.806026     -0.151355     -0.865461
  H      -0.017256      3.245525      2.985991
  H       2.435533      3.112196      2.595906
  H       3.275366      1.525686      0.852991
34
Coordinates from ORCA-job HBQ_GS E -878.440364831706
  C      -3.295105     -0.644273     -0.621809
  C      -2.792335     -1.500444     -1.606303
  C      -1.438498     -1.542600     -1.836919
  C      -2.450708      0.159511      0.111838
  C      -1.046872      0.153867     -0.090534
  O      -3.056236      0.892377      1.127863
  C      -0.554964     -0.734475     -1.094645
  C       0.850779     -0.820856     -1.355010
  C       1.743817     -0.077097     -0.663855
  C      -0.083485      0.964766      0.641563
  C       1.301396      0.830572      0.345772
  N      -0.510453      1.835600      1.583899
  C       0.376331      2.561807      2.241039
  C       1.758587      2.491170      2.023843
  C       2.216193      1.618419      1.067207
  C      -3.315379      2.218606      0.896329
  O      -3.122361      2.744046     -0.189489
  N      -3.818341      2.825722      1.988501
  C      -4.100835      2.136266      3.242789
  C      -4.302629      4.196002      1.886876
  H      -4.003106      4.618448      0.933870
  H      -3.880866      4.793353      2.696969
  H      -5.393067      4.223651      1.966250
  H      -3.464069      1.265979      3.352860
  H      -5.148180      1.824248      3.292968
  H      -3.905409      2.822645      4.067034
  H      -1.027428     -2.202196     -2.590796
  H      -4.356130     -0.600672     -0.414271
  H      -3.469789     -2.123747     -2.175288
  H       1.182121     -1.506763     -2.124872
  H       2.805818     -0.151462     -0.864321
  H      -0.019017      3.246259      2.985210
  H       2.433909      3.113034      2.595991
  H       3.274463      1.526076      0.853820
34
Coordinates from ORCA-job HBQ_GS E -878.440364927396
  C      -3.295096     -0.644387     -0.621632
  C      -2.792350     -1.500526     -1.606170
  C      -1.438534     -1.542592     -1.836906
  C      -2.450700      0.159407      0.112001
  C      -1.046869      0.153809     -0.090452
  O      -3.056271      0.892331      1.127953
  C      -0.554993     -0.734439     -1.094664
  C       0.850731     -0.820688     -1.355179
  C       1.743784     -0.076910     -0.664064
  C      -0.083463      0.964683      0.641639
  C       1.301396      0.830633      0.345690
  N      -0.510411      1.835377      1.584107
  C       0.376381      2.561568      2.241258
  C       1.758622      2.491053      2.023933
  C       2.216201      1.618467      1.067128
  C      -3.315157      2.218611      0.896426
  O      -3.121875      2.744033     -0.189351
  N      -3.818286      2.825770      1.988492
  C      -4.100968      2.136374      3.242767
  C      -4.302611      4.196024      1.886700
  H      -4.003010      4.618391      0.933681
  H      -3.880959      4.793475      2.696777
  H      -5.393060      4.223635      1.965956
  H      -3.464049      1.266229      3.353079
  H      -5.148261      1.824150      3.292720
  H      -3.905880      2.822877      4.066987
  H      -1.027473     -2.202134     -2.590836
  H      -4.356123     -0.600842     -0.414094
  H      -3.469842     -2.123813     -2.175129
  H       1.182039     -1.506523     -2.125120
  H       2.805772     -0.151188     -0.864630
  H      -0.018950      3.245876      2.985571
  H       2.433954      3.112888      2.596099
  H       3.274461      1.526222      0.853640
34
Coordinates from ORCA-job HBQ_GS E -878.440365547304
  C      -3.295031     -0.644627     -0.621117
  C      -2.792375     -1.500681     -1.605777
  C      -1.438621     -1.542480     -1.836878
  C      -2.450616      0.159263      0.112388
  C      -1.046805      0.153775     -0.090292
  O      -3.056225      0.892313      1.128205
  C      -0.555040     -0.734252     -1.094751
  C       0.850628     -0.820183     -1.355678
  C       1.743745     -0.076398     -0.664654
  C      -0.083319      0.964500      0.641843
  C       1.301478      0.830763      0.345495
  N      -0.510163      1.834717      1.584797
  C       0.376692      2.560744      2.242052
  C       1.758888      2.490539      2.024336
  C       2.216351      1.618450      1.067014
  C      -3.315008      2.218575      0.896467
  O      -3.121480      2.743824     -0.189344
  N      -3.818308      2.825932      1.988337
  C      -4.101003      2.136842      3.242764
  C      -4.303019      4.196014      1.886035
  H      -4.002994      4.618330      0.933126
  H      -3.882036      4.793743      2.696251
  H      -5.393529      4.223302      1.964637
  H      -3.464113      1.266699      3.353241
  H      -5.148308      1.824675      3.292815
  H      -3.905872      2.823529      4.066824
  H      -1.027607     -2.201889     -2.590949
  H      -4.356040     -0.601214     -0.413464
  H      -3.469948     -2.123979     -2.174629
  H       1.181834     -1.505801     -2.125856
  H       2.805696     -0.150475     -0.865497
  H      -0.018554      3.244629      2.986801
  H       2.434279      3.112217      2.596603
  H       3.274574      1.526442      0.853236
