34
-55.4408776840 converged=true
C  -3.37276511426263603255 -0.98310121062093414057 -0.46493214240355773548
C  -2.81040991319714406060 -1.86400259104782373143 -1.38582568288126961598
C  -1.47439960213626730656 -1.77981503225596870976 -1.68343245240453853739
C  -2.58699034862568133519 -0.05321524542359459126 0.18161141651137346908
C  -1.19842852323826409844 0.01605397705806624678 -0.05264285031269273774
O  -3.22641169561878671246 0.78729239824441032969 1.07952101808896827606
C  -0.65290153311253029678 -0.84321818458081498893 -1.03731460597014035763
C  0.72790160717400598234 -0.74110928819824484215 -1.37706498486115624935
C  1.53502094717862447304 0.16679739690425163245 -0.78408593891084188421
C  -0.31679012067097056526 0.91373692674557427384 0.64803225082086501896
C  1.03850720735271395689 1.01086390546769244736 0.24729937402637114374
N  -0.78943714817787813409 1.62610453167816149112 1.68145607078343539698
C  0.00028707863550275005 2.47678173359856890201 2.29061418070031397320
C  1.33284140214200963470 2.69238918204642896370 1.93358761590385386242
C  1.85610949493603460958 1.93803349292761417644 0.91221502896981965236
C  -3.08875101805796070664 2.12824893925481140045 0.88839030157052334413
O  -2.68905305312973874621 2.60749427737201155963 -0.16577145988343211513
N  -3.54757932361820493838 2.84298712578628087755 1.91791373095919315261
C  -4.00047411860317225774 2.27163365259300942256 3.16593915520740321057
C  -3.53905708872346824734 4.28707276921090585375 1.86128167826173096522
H  -2.86818883578283845281 4.68643320904035753927 2.62296292093643312882
H  -4.54667923344602620261 4.66644398979745211875 2.03279898660706104252
H  -3.19407174492276313416 4.59749161216926083284 0.87758894277381493954
H  -3.41191439556430609059 2.68437229551030265284 3.98587090732052118369
H  -3.88045026121524694318 1.19392118228175969641 3.14339816938126626056
H  -5.05147384515019659545 2.51993848977401135869 3.32021581718859870591
H  -1.03448624375190223468 -2.43086237605656485528 -2.42273068981686945378
H  -4.42947169420307762522 -1.00482677141148557531 -0.24924208410171005967
H  -3.43911555930824830440 -2.58902509849285999977 -1.87745455614672995814
H  1.10783494625006850853 -1.40297456462571279445 -2.14020457112889639362
H  2.57363324383313507582 0.26208822067369419440 -1.06339417332931929216
H  -0.45021006733637797259 3.01338567413668334538 3.11462550279006267218
H  1.92680758584023092972 3.42036057181889363576 2.46163258606543111640
H  2.88871696380290465811 2.04006482251499177138 0.61152055277029693237
34
-55.4406695789 converged=true
C  -3.38517628817061400071 -0.96869216934897228732 -0.50514145268145760337
C  -2.80433196111891147595 -1.86111402838415540550 -1.40321299630530349489
C  -1.46089182599278299968 -1.78607199184228782052 -1.66801035021604437958
C  -2.61174367120997530378 -0.03606648728784267455 0.15192321313500789515
C  -1.21756677379699596031 0.02710500401150928163 -0.05105977515488713259
O  -3.26265108204381082402 0.81357251480716696879 1.03053091041779243398
C  -0.65161948085222820559 -0.84546820657272436783 -1.01211654254580629697
C  0.73765855469939101141 -0.75430464541117214772 -1.31847226621488244902
C  1.53457829708977655514 0.15566451651262713796 -0.71502713509848614404
C  -0.35004028065192072106 0.93167681526462331476 0.65871262081830106450
C  1.01614463201681104465 1.01510203211879002083 0.29262034847178897135
N  -0.84462175647949089274 1.66498208914066414543 1.66753726095009957575
C  -0.06439059818262515833 2.51841519675740510564 2.28569861642569671645
C  1.27911817595588495067 2.71789442676488857131 1.96265828758135985055
C  1.82311528905329822692 1.94543235551621673807 0.96600471075874350113
C  -3.11071024722095046400 2.15201235008868607679 0.83488703637458105966
O  -2.71361283120449492401 2.62942539074446646197 -0.22089025705202292027
N  -3.57792379467242627200 2.85581906323681034010 1.86882466655417944779
C  -3.94217093622497838368 2.20855951019078888820 3.11265460217613787464
C  -3.49827706203551613839 4.29883919873667164069 1.86192519962655911314
H  -3.17441419444479810963 4.62108364254555503692 0.87431453754571752945
H  -2.77902234023714544975 4.64327139523073117999 2.60607044188245007277
H  -4.47938788053441072634 4.72066755822473993476 2.07904689758362382079
H  -4.65887809968802280025 1.41143203482766810275 2.92241121446619089852
H  -4.38937483349384116593 2.95151767782273566354 3.76544746047702760805
H  -3.06012872197489116388 1.77664087630933620332 3.58856388778014778751
H  -1.00566956660241046961 -2.44748577187156701740 -2.38855155429764742792
H  -4.44680523505105540494 -0.98474412115760867614 -0.31455949615719924761
H  -3.42375540073846895694 -2.58861776502446705450 -1.90287927229650266625
H  1.13294168808363915346 -1.42673929627751783222 -2.06436686106090006021
H  2.58065460277597047423 0.24182425555144448914 -0.96802391723021508074
H  -0.53146114711329806024 3.07234258468677889908 3.08884915600481235742
H  1.86464198791154789348 3.44810392416821365202 2.49695254202641025998
H  2.86392277744128875838 2.03576007322744612082 0.69105826486559285282
34
-55.4377316993 converged=true
C  -3.26533239377047479479 -0.49613877659245386731 -0.51208514856871945042
C  -2.83263203329155199839 -1.40303397432662779742 -1.47774922349842641189
C  -1.49334126684276946584 -1.54561399016638989501 -1.73036552102277085829
C  -2.35455089890652136120 0.26353825622731241740 0.18914348765567490229
C  -0.96751840384682930019 0.14231043589932323989 -0.04567176450145993272
O  -2.79427329193648432692 1.12933847287181277075 1.17552712516804280796
C  -0.54482874273475045968 -0.78501871405100298595 -1.02848652384093175449
C  0.84411060987545316614 -0.93414988918378649707 -1.31216069925812406360
C  1.77730292196888961520 -0.19803890060181861266 -0.66844451049251030206
C  0.02670183435507489378 0.91846176751032193586 0.65218753938386708757
C  1.39535458162403780413 0.74557746452445439189 0.32430805113205074530
N  -0.35736099144225841329 1.79006425499091470499 1.59667802333764363709
C  0.54881234442880155733 2.50350252178042120832 2.21924586902657683396
C  1.92010582012807851093 2.41605607475925454608 1.96510362709112329505
C  2.34140940947315989717 1.52451104183160035532 1.00986136474485821424
C  -3.69080256380260607330 2.09508100861127788406 0.85527851508887220433
O  -4.13303578121674508594 2.25533490795503022142 -0.27526593055666048748
N  -4.01414167740916294491 2.84665038044599771894 1.91026217451456470364
C  -3.43253830377662039197 2.66151971258712727320 3.22235943152738979478
C  -5.01730447474365970351 3.88084979433359666956 1.78936773861348541459
H  -5.81922529053239667718 3.69788438864163815367 2.50486219369739337992
H  -5.41816959199746595033 3.86234998908992910316 0.77819078028501287303
H  -4.57341023786415856733 4.85747897451444732297 1.98479111857198775581
H  -2.47076633061711614658 2.16526263766079107853 3.12468735453381718514
H  -4.09177840771715839452 2.06128197722318518004 3.85207752699857852718
H  -3.29430685238267972892 3.64015139094654660568 3.67794637328317275404
H  -1.14830997359524955570 -2.24364904092991590545 -2.47714986941020054445
H  -4.31836245295172460601 -0.37103281074488703162 -0.31097070055228681618
H  -3.56117787509726113626 -1.98661739992941099864 -2.01758627160165904257
H  1.12895103186795275896 -1.65305636600133687431 -2.06488377040619131009
H  2.82851990950214737808 -0.30751649628868271691 -0.88929884889128030245
H  0.16475677973621949413 3.18496222067105483333 2.96683643340325886584
H  2.61596630805630603334 3.03169430739744161230 2.51148336841073938075
H  3.38932628075106467946 1.40784437106693571806 0.77430068045220767914
34
-55.4376692313 converged=true
C  -3.25157968703956878898 -0.44442389321317832263 -0.58825664410973077523
C  -2.80716688347886478283 -1.35160233141688479463 -1.54833248171223369916
C  -1.46451780342562765114 -1.50957971818624647753 -1.77096706290448602239
C  -2.34901046009433134287 0.30377889268923663479 0.13611946559574350513
C  -0.95711484089859355517 0.15881249139544784121 -0.06055028323820965674
O  -2.78898277149567519473 1.17633511173169691411 1.11366517806577425276
C  -0.52361128981524185377 -0.76809977904970727636 -1.03890521132021307338
C  0.86945359872541927437 -0.93901161627478924032 -1.28764170222809393174
C  1.79800375906749354549 -0.22555339306922639331 -0.61275459052772096591
C  0.03208976854926137712 0.90753293240250743068 0.67404383358474828647
C  1.40585756826950292186 0.71340886073058529249 0.38030285544509412343
N  -0.35932176903808632495 1.77188489708710017467 1.62238310792539697225
C  0.54335282076013524666 2.46046151913908062170 2.27727208382837886802
C  1.91886614094386165341 2.35294214149649150158 2.05573080431917398769
C  2.34801699764359295131 1.46595062385728081011 1.09988593914805754537
C  -3.74871538045045138432 2.09102808633058590004 0.82631871522993916024
O  -4.26669118606422514972 2.20410997245428319502 -0.27694945627670064514
N  -4.04298533272328342036 2.85329067043515127722 1.88259503470235789457
C  -3.38582815108084833611 2.72590779553421391768 3.16557923663064233466
C  -5.08921089874922216723 3.84729503782868764716 1.79394325117382358314
H  -4.67492923748830779829 4.84104905382037031814 1.96630179334457744211
H  -5.85566687811959241117 3.64061066215676909508 2.54136841963639703579
H  -5.52796751995339707975 3.80651180392950072573 0.79927272820362427197
H  -2.43189270678320745844 2.22226601787906918872 3.03593025399027549582
H  -4.01021358561757157446 2.15850570094335747484 3.85804471091343348377
H  -3.22094312771088464586 3.72382355090145367171 3.56829930006096951445
H  -1.11069000019086883135 -2.20676994567762907451 -2.51443424495058387436
H  -4.30770979650634000535 -0.31157128117507770781 -0.41142411863323458121
H  -3.53045248557742485929 -1.92384774727468643718 -2.10708186681968179244
H  1.16114799893652098639 -1.65597708903117046830 -2.03962028743063061853
H  2.85263139195614634502 -0.35077282479034144203 -0.80749872552211843235
H  0.15303524576613147801 3.13791838738574169199 3.02528905151748794822
H  2.61165467941195572621 2.94875206331366035428 2.62741054895157510884
H  3.39924181227136212868 1.33287335431608711112 0.88904035772526279757
