34
Coordinates from ORCA-job HBQ_GS-GOAT E -55.440860052510
  C          -3.33625317452524     -0.93077524231762     -0.61047643628014
  C          -2.74690069009320     -1.77014078582001     -1.55310535145552
  C          -1.40288705916600     -1.67369636824102     -1.80761781104549
  C          -2.57058889805101     -0.02954096038431      0.09746357341479
  C          -1.17610667491586      0.05141345928712     -0.09471798332200
  O          -3.23559206290548      0.76970693752293      1.01473179673495
  C          -0.60123217447493     -0.76636695680359     -1.09784061611233
  C           0.78963141771714     -0.65378376877854     -1.38970118134540
  C           1.57956381442574      0.22451945393897     -0.73249697236833
  C          -0.31628074502226      0.91926480810805      0.66808401686215
  C           1.05182694872856      1.02691680564080      0.31644383439856
  N          -0.82103050378473      1.59355825096689      1.71187597649693
  C          -0.04932023605386      2.41506139356045      2.38108213666703
  C           1.29589425168658      2.63647751904395      2.07937731701504
  C           1.85027802326492      1.92150766003331      1.04614827979262
  C          -3.10011786438937      2.11749275646697      0.87903583982669
  O          -2.67983730425354      2.63764571402092     -0.14738307282538
  N          -3.58388373935526      2.79166481628137      1.92433947746529
  C          -4.06199860448211      2.17214035738766      3.13935043117321
  C          -3.57924936317079      4.23688916466692      1.92110035667614
  H          -3.21347402681014      4.58380740284712      0.95721226484542
  H          -2.92661588436347      4.60975657162320      2.71154258774899
  H          -4.59166599292262      4.60716447203566      2.08395266678222
  H          -3.92585465346606      1.09755670605560      3.08329788819535
  H          -5.12023898055599      2.40066112368633      3.27391827184427
  H          -3.50138718065655      2.56427916580452      3.98837640248952
  H          -0.94094070975738     -2.29255741293051     -2.56101032049988
  H          -4.39843653201049     -0.96265742015197     -0.42498711786685
  H          -3.36040512889464     -2.47279136343342     -2.09395739154467
  H           1.19233230543302     -1.28398098284077     -2.16780940755948
  H           2.62707180299666      0.32699557697453     -0.97340078426798
  H          -0.52602503585882      2.92155220610251      3.20937235184674
  H           1.87490043209857      3.33825915984306      2.65715091656659
  H           2.89297422358896      2.02983977980263      0.78502805965073
