34
-55.4408832415 converged=true
C  -3.40418561955923770768 -0.99631005054325905146 -0.39945067512701076806
C  -2.86003569140734725806 -1.89319737171454383073 -1.31588925260829570085
C  -1.52887018819225151134 -1.81824350011512470005 -1.63656634391916422366
C  -2.60480732717914786889 -0.05925789879808396332 0.21926755552678772743
C  -1.22033769793655166858 0.00321833407012269129 -0.04013563057553640873
O  -3.22566434923104861099 0.79631054626813357888 1.11602588975354932721
C  -0.69392435573664201787 -0.87394852637880804380 -1.01946021458804714221
C  0.68135913817745608068 -0.78262821445513786056 -1.38362455440802945006
C  1.50131024759285325310 0.13170998989336724083 -0.81882887272621129870
C  -0.32484590173190724949 0.91100032385525531176 0.62930817786401893610
C  1.02433153950373667662 0.99542214410545248882 0.20545608859965067139
N  -0.77862398343765260034 1.64587489910303053087 1.65548728667281430660
C  0.02415575420194841089 2.50404719237332029635 2.23639577404294520591
C  1.35217334624980178859 2.70635534334686900237 1.85559653171739702415
C  1.85614085926917060654 1.93104584547808699746 0.84025730580607438380
C  -3.08669262984488712576 2.13358631053785074982 0.90178775083343065688
O  -2.70907129774251975718 2.59409262115029859430 -0.16866818650521045453
N  -3.52585656746685760510 2.86634732026504313041 1.92751668859112501586
C  -3.93788174192128792583 2.31792630761306517329 3.19986195960180497266
C  -3.49943758584627495622 4.30934757360949571847 1.85212018671582345775
H  -2.80218822978963322257 4.70966289254423653432 2.58929216364634440239
H  -4.49678694042663540387 4.70410433577167275132 2.04692192723900356910
H  -3.17863676761233371337 4.60230594469961573623 0.85495701784443145499
H  -4.95964236921039702821 2.63307399981554723922 3.41430917114515120048
H  -3.27773194158414282739 2.68659686653387019817 3.98608468432912976809
H  -3.88924873719626074120 1.23491202143540190761 3.16842757927880125379
H  -1.10316177703179940650 -2.48255890405942647448 -2.37236565104667151971
H  -4.45706345951978377684 -1.01155610100678128305 -0.16534282105293701681
H  -3.49905283168166425511 -2.62368833292888714581 -1.78560943801850058321
H  1.04633787113746778985 -1.45858146877639605066 -2.14168485970076227787
H  2.53564154296639321373 0.21825426054947449916 -1.11626243196565955174
H  -0.41114150143429017970 3.05848059475524491901 3.05675355085114919262
H  1.95737169720178050270 3.44109275586225260568 2.36102610844557814218
H  2.88421748112794373853 2.02304193786384445275 0.52141551218080395280
34
-55.4406695789 converged=true
C  -3.43684149939931948836 -0.95701517840680749849 -0.44289757318542244402
C  -2.88547293159596529577 -1.86672863992911142184 -1.34219926037524306395
C  -1.54671738929734958745 -1.81211754197938312849 -1.63431493694816376561
C  -2.63859384409534447613 -0.02740419751874290100 0.18824960132865908857
C  -1.24803768375248891331 0.01535437275262085954 -0.04293695046240553204
O  -3.26094164245799511548 0.84023270156343743409 1.06995692595979052797
C  -0.71256108527924866269 -0.87500975030031225010 -1.00513599288366028972
C  0.67139906537720772661 -0.80533283189221438469 -1.33988591866518413909
C  1.49176970070388881240 0.10073071613121364898 -0.76255425889860106725
C  -0.35503313339322972730 0.91626667962080354801 0.63935999404120091860
C  1.00455228911311911233 0.97785243534998222970 0.24543207184963383716
N  -0.81999843179562759143 1.66697637485591609874 1.64946733498315145638
C  -0.01674352425206571127 2.51689103815924841712 2.24247560606057083632
C  1.32251657138242206813 2.69528171189069265523 1.89073421353171067238
C  1.83662395917043896887 1.90491005921013245583 0.89225782060586755762
C  -3.09578039270735505539 2.17435187727060785789 0.85634156603230482396
O  -2.71368676228795369099 2.63494096682834566536 -0.21236672470172168747
N  -3.53326375665553404914 2.89548583313383023352 1.89134568943742786828
C  -3.88095084288454206245 2.26670865353921957563 3.14931499207501319759
C  -3.43527938007698985245 4.33718241133003967747 1.86668084633003106276
H  -3.12703213539047553127 4.64432777170705701764 0.86930989118466395205
H  -2.69700107724370141682 4.68034655125309928536 2.59255725111222146140
H  -4.40638688476885409528 4.77412258761480146063 2.09839819882462874645
H  -4.61146133632009735948 1.47695552542625985204 2.98222719383193846099
H  -4.30551388861927719631 3.02254804653875108755 3.80243803761748111469
H  -2.99522074178235353514 1.82857079655987808664 3.61252037678075321736
H  -1.11444129110090650592 -2.48727182327363838255 -2.35624235159215533741
H  -4.49458571064516476667 -0.95713295024424893676 -0.23120832482912601069
H  -3.52399266441861946930 -2.59152953976218203280 -1.82133356110512156789
H  1.04310697862498669153 -1.49100288196852859279 -2.08585218566500207871
H  2.53362211553591443192 0.17046447379816531686 -1.03712166131310334904
H  -0.46059830019461256434 3.08563486276114584683 3.04843133552285339150
H  1.92787003015958902097 3.42360969214487287360 2.40512699917657712945
H  2.87282561563905325386 1.97863919914269437150 0.59580375394929829813
34
-55.4390823884 converged=true
C  -3.42835598041479716613 -0.98189617742141299672 -0.40937175247591139904
C  -2.88943429417101205203 -1.87182895790464920438 -1.33565676067144334382
C  -1.55843868163791698933 -1.79930513591762153425 -1.65746476942635556640
C  -2.62481963052731170905 -0.05279036204188614079 0.21582180148637758466
C  -1.24065043558521614919 0.00801932574592068015 -0.04645775642142413453
O  -3.23984703057650635927 0.79508962521827730718 1.12369343283635059194
C  -0.71891660613185570661 -0.86407565246148276827 -1.03285982615081861624
C  0.65713771937492748698 -0.77855415302509545228 -1.39539803338011303424
C  1.48307568763422703562 0.12461001396713600187 -0.82156700276752292478
C  -0.34022483984848883587 0.90699085327483319752 0.62865414670548125375
C  1.01049760024486512400 0.98415244193825213159 0.20817496915706112937
N  -0.79044824008192293707 1.64001263266328778379 1.65776378131940083094
C  0.01768364492327334503 2.48799289943862333985 2.24648748252856522711
C  1.34869660694332771378 2.68076651846005020730 1.87121129746362457880
C  1.84858393250286234810 1.90803515466895667885 0.85189132824924962417
C  -3.10031036290498374086 2.13362282592975294193 0.91800182416147524389
O  -2.73390241653861654214 2.60698251268953606896 -0.15071247683684263485
N  -3.52277306756698393997 2.86916196433364234508 1.94830268580414411872
C  -3.90840575155498193283 2.32171680997805918167 3.23009517756779729325
C  -3.43498228856124043773 4.31153620333593856628 1.83320883027556114087
H  -4.12139920235599355181 4.67203398305714756589 1.06540051384265610501
H  -2.42437196979890856596 4.60556752077576714299 1.54409781366376108735
H  -3.68898743811600571263 4.75345514238131272577 2.79059976556211486454
H  -3.98379007913252447537 1.24188112400999628449 3.15514742711219620119
H  -4.87445746464801210607 2.73443540232574378024 3.51962943788200721684
H  -3.16273453564188145037 2.57578280422981986675 3.98499961736920438327
H  -1.13613209999494602087 -2.45904518398553895153 -2.39933625699696495559
H  -4.48076683826513377795 -0.99685765507921253459 -0.17307797428030047282
H  -3.53207313142267764761 -2.59532207843492290777 -1.81125676374193878004
H  1.01832610758350727842 -1.45089801275446106388 -2.15845113882072192624
H  2.51873600518737550402 0.20527252462340550565 -1.11603578833145933302
H  -0.41588131527234772911 3.04202641235919335472 3.06824842669455311039
H  1.95908711322932327370 3.40621345411626830213 2.38380862360505396680
H  2.87842928370989259435 1.99305522810478308315 0.53678791133427605775
34
-55.4377316993 converged=true
C  -3.31137458071911439106 -0.50096689228381174885 -0.43536659507756947374
C  -2.91138402134533524901 -1.43020623516490830163 -1.39386406679854335522
C  -1.58017203185885524164 -1.59099456948998452255 -1.67646902496303651375
C  -2.37629999641601763471 0.26258213542743968905 0.22869825861759324193
C  -0.99671838779460575353 0.12299598907752828936 -0.03769209841385956494
O  -2.78319280126748180848 1.15119696864756737575 1.20886171537726161418
C  -0.60735479070218445496 -0.82689504260035540106 -1.01269659600928951804
C  0.77265831187194389251 -0.99531800168630701897 -1.32743651086092961933
C  1.72848903396178132930 -0.25663890796477661915 -0.72095597716813364375
C  0.02184054713991767649 0.90211219976728795888 0.62064520566101033516
C  1.38025426035368270483 0.70931278682404552693 0.26267194721341363683
N  -0.33039133429614997439 1.79517834912755058774 1.55746054455543081474
C  0.59768988695273672640 2.51106336903188598342 2.14389799449429840905
C  1.96138487751517431867 2.40504513919686635504 1.85793110063144562005
C  2.35038743983233366919 1.49146354915514711692 0.90983684120733221423
C  -3.67804750574959182785 2.11970897172060990243 0.89231454562746359560
O  -4.14651243624705045931 2.26307522594072718647 -0.22990156567383379649
N  -3.96799992610110319191 2.89424015630643172159 1.94037192132762870145
C  -3.35596808628195208968 2.72802088998273273290 3.24111141977210959197
C  -4.96386939822996087202 3.93602311782976421739 1.82439025969645296499
H  -5.74959160993628071168 3.77465317336331995790 2.56268965478312038542
H  -5.38974813449030243362 3.90250926215986737589 0.82388136440425563389
H  -4.50592936207385275083 4.91164361408779548412 1.99019893593667163145
H  -2.40170998948078961988 2.22035575869183432474 3.12938028465470097217
H  -4.00518380031068499392 2.14642140558547911411 3.89814165482163588194
H  -3.19713803327477830152 3.71362230862627917816 3.67441294916129024273
H  -1.26040842606780678636 -2.30641470347692045806 -2.41802931024573197760
H  -4.35786626223479611753 -0.36150046526976731265 -0.21092260276481222814
H  -3.65861015134378497748 -2.01649512436162225981 -1.90444329258774747160
H  1.03190515101233359907 -1.73111083695670475713 -2.07305879473536736057
H  2.77283070615195814668 -0.38083423345842870589 -0.96538414755359347463
H  0.23877652341587696228 3.21031993150152983318 2.88753709193760199625
H  2.67640643362001195982 3.02383380283549119127 2.37523936262598533986
H  3.39099788968627180452 1.35983690055050843171 0.65092752466484316010
34
-55.4376692313 converged=true
C  -3.29921184439669579191 -0.45162748885488679385 -0.51145933460779480217
C  -2.88749523341894853701 -1.38196709120748062460 -1.46391864040409114267
C  -1.55235709768345642168 -1.55795970609206690938 -1.71623257511988969171
C  -2.37179160551955270364 0.30142074193972123730 0.17554097775812171900
C  -0.98665610260004321663 0.13844401925796900876 -0.05228766127261785801
O  -2.77897331626587984488 1.19744443718923654352 1.14604095310235143401
C  -0.58648830868261137006 -0.81187239673735023260 -1.02235698735559221717
C  0.79827700271735624327 -1.00182264257843289812 -1.30173919535367543787
C  1.75010831276037315263 -0.28474711600773661146 -0.66414959656355010420
C  0.02762660792592086523 0.89132762912318708182 0.64279033991142897619
C  1.39176371710701651807 0.67748363904995212437 0.31936093454803232694
N  -0.33181316507982905328 1.77808066557021060561 1.58307050656449188608
C  0.59341583787015084184 2.47015161720673859236 2.20180133678410694387
C  1.96192325854424565179 2.34429124315032755277 1.94877079534612285272
C  2.35868379199655198164 1.43437223047995465741 1.00051329554998313931
C  -3.73659616537838656924 2.11605010419519468101 0.86418990098766879093
O  -4.28056906625206856631 2.21271574232097911761 -0.22807212982313440630
N  -3.99725059884335687244 2.90186861786841587829 1.91200059233324104468
C  -3.30984090740786562890 2.79301661863110650685 3.18075966283575928273
C  -5.03565380577187049482 3.90454973609885813701 1.82928958272003328034
H  -4.60761425203824614982 4.89722384655356535177 1.97164146043297350275
H  -5.78536565115762613232 3.72040463244509966856 2.59925082304283083801
H  -5.49924350684552365465 3.84871338940217677660 0.84668743254449174707
H  -2.36433438850898847150 2.27723135049781966188 3.03779214665444730059
H  -3.92239128683128690511 2.24571505393759629499 3.89947641569021374863
H  -3.12537419385915971048 3.79691681296295957537 3.55939247525990198895
H  -1.22380054817876371409 -2.27318552200003987096 -2.45414476804485381933
H  -4.34930828395222057736 -0.30457263051519745112 -0.31145257725810127081
H  -3.62989279386764085444 -1.95767523635429796514 -1.99327083637831803387
H  1.06431974863961142930 -1.73635287427979312369 -2.04624137862877875094
H  2.79833402781707762941 -0.42450711308642530284 -0.88217395703278900232
H  0.22830339954147160775 3.16611008838605512139 2.94554841436224235096
H  2.67438285563647193399 2.94412282769538169447 2.49132636400693430190
H  3.40303355198354173794 1.28647478235062240337 0.76663522172690412582
