! B3LYP/G OPT FREQ 6-311G* CPCM(Water)

* xyz 1 1 
C  -3.50826778365067415422 -0.55810834317446533781 1.87638784590087581705
C  -3.37715416720992678279 -1.34513959819747497271 3.02137944914472278413
C  -2.16268312462759393355 -1.47267721282293995166 3.64864713714475552564
C  -2.44113951653983729528 0.18215776394936056271 1.41986677913919256966
C  -1.20575742695143195427 0.15829841227212604338 2.11390745090603093814
O  -2.42395829335864343435 0.84452503508583576242 0.21661231768203725867
C  -1.04900835017779225922 -0.75856044852038873039 3.18657349517717003451
C  0.25002252418371084808 -0.99051937451905902599 3.72624629964102060953
C  1.34914065032127217236 -0.42446501048002827083 3.17516155819326817422
C  -0.07980618289275875910 0.93606562049743091691 1.72079458224294024049
C  1.22021849752139388556 0.55210486945059678021 2.14669042124776332514
N  -0.20494800753728203979 2.05384518968924023596 0.95413650499391122750
C  0.86329982365897173224 2.61507996307314449780 0.37218342366273160504
C  2.14157936499525058949 2.15090199266162063196 0.59882315222777393604
C  2.32860894335197876615 1.17242045444253273345 1.55913910197590999118
C  -3.57185976260639792557 1.20906467216722157687 -0.45008413812867886783
O  -4.62784325082938075013 1.43300138081877959095 0.11850903873736184924
N  -3.36661963312235856804 1.30788314272076489075 -1.76013063302000727361
C  -2.09394744039885205567 1.05306831270474532403 -2.40196549647399226757
C  -4.40687673263563794990 1.83615307695802276733 -2.61612074455601550937
H  -4.05590616637942602551 2.74196466759732482288 -3.10953023600636324630
H  -5.28320528668383815329 2.06537852356170192891 -2.01396808714836295096
H  -4.67525736945234804409 1.09674512191446726916 -3.37097710328756772213
H  -2.28886496017812746118 0.63364548137092158164 -3.38708913034770731088
H  -1.51241388562173328936 0.34473333060170952002 -1.81919702748717071472
H  -1.53119579993238152937 1.98079920126759501109 -2.50884209437106697749
H  -2.04820424290437630432 -2.14018098990649274782 4.48746829039093597657
H  -4.44738505408998374691 -0.52863565590407168848 1.34760498547725826590
H  -4.23666217561358315891 -1.89084131673543720531 3.37650596081589071673
H  0.33641983145832132784 -1.68577139046611734763 4.54593207805320798087
H  2.34022317841109606107 -0.67641745461977609288 3.51574452697424177927
H  0.66070363866280068521 3.47443039054072233540 -0.24909875804771486330
H  2.97523538611317883706 2.60274135538654149968 0.08792085550744388467
H  3.32060931421314053935 0.88018760731900536065 1.86698646654169442272
P  -1.57708649047224502837 3.14567790033007543826 1.17630900903117763256
O  -2.54260486394447182690 2.71406369244178868882 2.18860091502204712199
O  -1.95370210162762392159 3.40933795082458246384 -0.32192663625902850910
O  -0.82498372483922988163 4.48647145659931023687 1.57610292089480408251
C  -2.53258005457578150299 4.65023467215297525712 -0.76773579935612046299
C  -0.67465774015262858221 4.86728104075011369645 2.94723141201676863687
C  -3.82884480360116441489 4.96125489032926747512 -0.04834201003988480849
H  -2.70127857185250430661 4.49925096601503149429 -1.83501656374781285663
H  -1.80889345226291009538 5.45345761534152106975 -0.61316434680225251341
H  -4.52161636768755492710 4.12495933876647136174 -0.12979401934872414337
H  -4.28821881406136284909 5.84681496510165921165 -0.47675642893763758856
H  -3.63920498576794315682 5.13426014970434607676 1.01039375546397480754
C  0.54105375732677707390 4.21210218767530886197 3.57498373268845792694
H  -1.58460830759661841505 4.59508530691958405612 3.49087067056461730630
H  -0.57241624234365062751 5.95386298208164799206 2.92826476774458832608
H  1.42742274410017389030 4.41192981783846960298 2.97879000546566574670
H  0.39083564026483230691 3.13764291937222061790 3.65616599720717205813
H  0.68797781228970356082 4.61749338781469553794 4.57165434038642271020
*
