52
Coordinates from ORCA-job 2 E -1603.818074335705
  C          -3.55356772789263     -0.72710093827794      1.80539554583399
  C          -3.39930517535526     -1.55963428013274      2.92384590492613
  C          -2.18171735057674     -1.66414592000682      3.56143485049692
  C          -2.50421535074572      0.06758901839990      1.38496247567290
  C          -1.26427244234673      0.07921564250724      2.08930599301248
  O          -2.51235646662783      0.76709150048735      0.20261953480924
  C          -1.08639248499199     -0.89434666749934      3.12494293000313
  C           0.22296917612969     -1.16330217280659      3.64221166310336
  C           1.31939382549026     -0.58333622396355      3.09673050681348
  C          -0.12489877316698      0.89051703878829      1.74463904998177
  C           1.17607406115025      0.45380268166416      2.12022509910316
  N          -0.20519776908883      2.09687679857513      1.05284721026475
  C           0.89407408066539      2.63615506344574      0.46916597694637
  C           2.15266087273874      2.09178885060421      0.62824310914127
  C           2.30097602229128      1.05376804920923      1.53083361025425
  C          -3.68834762126149      1.07999684307433     -0.48422452942581
  O          -4.73547438727847      1.30276121767354      0.09119784177232
  N          -3.47210538991545      1.12257125452084     -1.81028964104099
  C          -2.18607561279033      0.87606479737951     -2.46039975871120
  C          -4.54663744488340      1.58781891034061     -2.68399353886222
  H          -4.30180798402244      2.57086889014231     -3.09723834909590
  H          -5.47257107200323      1.65515820808296     -2.12140532317135
  H          -4.67408356500940      0.88311296027306     -3.50831770338257
  H          -2.35054144033093      0.24114167891568     -3.33338496274256
  H          -1.50261878411928      0.37665430083285     -1.78314751413160
  H          -1.73993882653914      1.81789928849815     -2.79284898785282
  H          -2.03795922635595     -2.36991472662491      4.37166858523629
  H          -4.48626965813480     -0.72413155815544      1.26178858194511
  H          -4.23893117450837     -2.16464694005552      3.24748622894770
  H           0.32207493698089     -1.90859201569333      4.42357033789005
  H           2.32059578847082     -0.86512949538119      3.40181953958351
  H           0.74228126149653      3.55231654139842     -0.08264840597167
  H           2.99641021778351      2.54302469266987      0.12398893407591
  H           3.28799528239435      0.68587948300900      1.78912290826023
  P          -1.53228351965219      3.30403309438026      1.33343729587128
  O          -2.50363139303966      2.80581958685812      2.32107437553758
  O          -1.93325576593020      3.58159119289548     -0.16165844262259
  O          -0.71748802997689      4.59748200004996      1.74756157536519
  C          -2.42603307214253      4.87546235319556     -0.68341649114167
  C          -0.59610274553934      5.10671343141637      3.12818319183243
  C          -3.80332046449705      5.21598323009959     -0.15899166482424
  H          -2.42649262624432      4.71607458072503     -1.75898439687717
  H          -1.68445950052883      5.63209479981987     -0.43139683939621
  H          -4.50973597478910      4.40698021809693     -0.35303048056306
  H          -4.15998156797118      6.11400947762605     -0.67063782841054
  H          -3.79095234255177      5.42508868527858      0.91320178420573
  C           0.73183880159691      4.70964236314173      3.73335129804589
  H          -1.44267671309029      4.73556094761946      3.70399272853976
  H          -0.68727777759660      6.18514425880914      3.01396512890670
  H           1.56435036457137      5.06731073904264      3.12409129271755
  H           0.81466192988514      3.62635164748569      3.84664224388940
  H           0.81631057254283      5.16192463232865      4.72531752013603
