! B3LYP/G Def2-TZVP(-f) Def2-TZVP/C Def2/J RIJCOSX TightSCF ESD(FLUOR) CPCM(Water) AllPop SOSCF
%maxcore 5000
%tddft
  nroots 3
  iroot 1
end

%esd
  GSHESSIAN "HBQ-DCP_GS.hess"
  ESHESSIAN "HBQ-DCP_ES.hess"
  DOHT TRUE
  LINES VOIGT
  LINEW 50
  INLINEW 200
end

%output
  print[p_mos] true
  print[p_basis] 5
end

* xyz 1 1 
C     -2.889736   -1.040992    1.722585
C     -2.164663   -2.230676    1.864821
C     -0.892789   -2.324474    1.349319
C     -2.302797    0.067398    1.161062
C     -0.949378    0.052650    0.749992
O     -3.113207    1.181029    0.968000
C     -0.286249   -1.211812    0.739194
C      0.932838   -1.372029    0.007298
C      1.420130   -0.367442   -0.756461
C     -0.233329    1.173428    0.210597
C      0.841870    0.937572   -0.681518
N     -0.526496    2.494029    0.522901
C     -0.060481    3.495236   -0.260121
C      0.796275    3.266489   -1.315732
C      1.322710    1.998621   -1.460470
C     -3.678408    1.308802   -0.297866
O     -3.109196    0.906145   -1.297163
N     -4.853976    1.955491   -0.264017
C     -5.511243    2.274191   -1.528194
C     -5.661128    2.163666    0.935479
H     -5.126468    1.835978    1.818221
H     -6.591479    1.597327    0.848529
H     -5.908606    3.221725    1.033517
H     -6.263524    1.520416   -1.775244
H     -4.775992    2.320212   -2.324999
H     -6.003325    3.241787   -1.431311
H     -0.357177   -3.264714    1.367045
H     -3.927050   -0.985452    2.024183
H     -2.633031   -3.089521    2.327183
H      1.406300   -2.345301    0.010535
H      2.272373   -0.511953   -1.407275
H     -0.346034    4.495490    0.028966
H      1.115045    4.094259   -1.931332
H      2.112142    1.807452   -2.176620
P     -0.832118    3.033343    2.237426
O     -1.348682    1.947020    3.065514
O     -1.635856    4.352063    2.042995
O      0.572544    3.626828    2.601572
C     -3.109111    4.444588    2.031775
C      1.652411    2.798908    3.173162
C     -3.485870    5.827770    2.497350
H     -3.500087    3.670707    2.687637
H     -3.425539    4.257337    1.008159
H     -3.148376    6.002952    3.519118
H     -4.573311    5.919715    2.471335
H     -3.061124    6.590361    1.843820
C      2.737819    3.731247    3.648496
H      2.007142    2.130358    2.389653
H      1.228930    2.215042    3.987893
H      3.136701    4.321693    2.823162
H      3.549588    3.136401    4.071114
H      2.364706    4.403700    4.421564
*

