## avogadro generated ORCA input file 
# Basic Mode
# 
! B3LYP/G Def2-TZVP(-f) Def2-TZVP/C Def2/J RIJCOSX TightSCF ESD(FLUOR) CPCM(Water) AllPop SOSCF
%maxcore 3000

%tddft
  nroots 20
  iroot 1
end

%esd
  GSHESSIAN "NMU-H-GS.hess"
  ESHESSIAN "NMU-H_ES.hess"
  DOHT TRUE
  LINES VOIGT
  LINEW 50
  INLINEW 200
end

%output
  print[p_mos] true
  print[p_basis] 5
end

* xyz 1 1
   C       -6.58586       -1.50933        0.05969
   C       -6.65667       -2.62095       -0.96664
   C       -5.61004       -3.67162       -0.64024
   H       -6.48065       -2.20715       -1.95487
   H       -7.64876       -3.05634       -0.96361
   C       -4.25658       -3.03995       -0.39376
   H       -5.52926       -4.39859       -1.43916
   H       -5.91955       -4.21525        0.24838
   C       -4.14742       -1.67517       -0.01273
   N       -5.27104       -0.89438        0.07314
   H       -6.83883       -1.89929        1.04666
   H       -7.30413       -0.73527       -0.17351
   C       -5.19456        0.38136        0.75922
   C       -3.95633        1.14252        0.33572
   H       -5.19351        0.23701        1.84070
   H       -6.08460        0.94199        0.50959
   C       -2.71274        0.32934        0.65547
   H       -3.92093        2.09885        0.84346
   H       -4.01062        1.33834       -0.73050
   C       -2.88361       -1.11755        0.24547
   H       -2.50636        0.37996        1.72102
   H       -1.85136        0.75155        0.15514
   C       -3.12292       -3.78953       -0.51762
   C       -1.78207       -1.93660        0.11963
   C       -1.85776       -3.26219       -0.26270
   O       -0.57073       -1.39190        0.39174
   C        0.59117       -2.04307        0.31034
   C       -0.64141       -4.00302       -0.36162
   C        0.54871       -3.44437       -0.09262
   O        1.58348       -1.43302        0.56651
   C        1.82864       -4.18360       -0.20284
   C        2.77678       -4.20009        0.81877
   C        2.12008       -4.90273       -1.33361
   N        3.25403       -5.59236       -1.42471
   C        4.16464       -5.62547       -0.46199
   C        3.94725       -4.92185        0.69194
   H        1.47423       -4.94383       -2.18677
   H        4.67561       -4.94413        1.47611
   H        5.03983       -6.21431       -0.64566
   H        2.59268       -3.65192        1.72126
   H       -3.20239       -4.82029       -0.81341
   H       -0.70012       -5.03635       -0.65206
   H        3.42985       -6.10383       -2.26644


*

