! B3LYP/G FREQ Def2-TZVP(-f) Def2-TZVP/C Def2/J RIJCOSX TightSCF CPCM(Water) AllPop SOSCF
%maxcore 3000
%tddft
    NRoots 5
    IRoot 1
end

* xyz 0 1
  C   -3.69174787238085     -0.58908896744046      0.13540530849715
  C   -3.68760014353309     -1.97875154088168      0.08937314615279
  C   -2.49861346784635     -2.67546178313917      0.04403302727502
  C   -1.23705544175227     -1.99145022799497      0.04012866383990
  C   -1.20939840892525     -0.58071777965229      0.08531631335520
  C   -2.48018962950610      0.16556567250271      0.13771219229158
  O   -2.51459142947726      1.43439125870591      0.18479300708254
  C   0.07037066125595      0.06581823150845      0.07702813847848
  C   1.26442235179003     -0.67273630994607      0.02667026133544
  C   1.18593050618536     -2.08248591719822     -0.01584950610877
  C   -0.02364902022328     -2.72931387343002     -0.00969786751789
  N   0.14517372864065      1.43493965081232      0.11736937955001
  C   1.32347682177721      2.11827755211548      0.11237562027351
  C   2.52099444714249      1.41999381854147      0.06379241923714
  C   2.52007880366334      0.03963071421974      0.02041597847553
  H   -0.75780855618780      1.91238199021105      0.15452032183829
  H   -4.61836615035312     -0.03110966254780      0.17291001609721
  H   -4.62628001278995     -2.51897989505219      0.08985945755849
  H   -2.49569797621784     -3.75725852456921      0.00947518746405
  H   -0.07143282095122     -3.80986286583709     -0.04298772402020
  H   2.10790867413311     -2.65008124147039     -0.05399025977406
  H   3.44442429823905     -0.51983265270061     -0.01853026383700
  H   1.25435503830621      3.19419848330363      0.14689059416893
  H   3.44795559901095      1.97726386993943      0.06026658828666
*


