! B3LYP/G OPT FREQ 6-311G* CPCM(Water)

* xyz 1 1 
C  -3.46602581804591292070 -0.57374872275094013219 1.90719279197810354098
C  -3.30218498355060097182 -1.32788770953321577650 3.07025715213536765091
C  -2.07569500314793842222 -1.42025504075194231035 3.68070766753806610794
C  -2.41955619058281712341 0.17390730061683190577 1.41586524101055477587
C  -1.17617236072725583895 0.19118402454190253081 2.09447341442606216333
O  -2.42100765914068860596 0.80318309259577880255 0.19399493613580909290
C  -0.98245838517210781760 -0.69885943588105492452 3.18291824411282586738
C  0.33207983799648554957 -0.89635804042299005445 3.69879678491719765532
C  1.40943700639473701308 -0.32675643409772581194 3.10909182443959997144
C  -0.07377375536841146442 0.98222148552139476596 1.66453644350795659790
C  1.24193827422410429939 0.62722618762899839950 2.06474180554753683481
N  -0.24135000263961026157 2.08990257486971486856 0.89238716070673262948
C  0.80161959136120342073 2.66847565272820164139 0.28128330728644201919
C  2.09253311513818118783 2.22432853186664836187 0.47554489769609531447
C  2.32306856131966288359 1.25876497727242075975 1.43983024448841567811
C  -3.57214594982106525833 1.10242126391863171087 -0.49362690705977529948
O  -4.64959522473754915950 1.27725766689396524889 0.05298031054461216360
N  -3.34486690814182852094 1.20828731860092153383 -1.80004455008685404493
C  -2.04443145550271099253 1.02457922920735167160 -2.41124329752731414445
C  -4.40750024504043480533 1.63040042330069256948 -2.68721535092596486294
H  -5.30303372570185604928 1.82857204719782640012 -2.10237964675918664881
H  -4.61987587261997934007 0.84223446873143115177 -3.41013268225618038088
H  -4.10984124427210328889 2.53400747620102340107 -3.21741824544500243377
H  -2.19257426892329876367 0.60924522962650162761 -3.40587082060381973747
H  -1.44350315575082310815 0.33772555042825591620 -1.82200887850729431605
H  -1.52549416251051805915 1.98038249330460103259 -2.49157955203007297484
H  -1.93588928753020339535 -2.06650572692691181231 4.53218638465130929660
H  -4.41301649900821146844 -0.57729815070857881665 1.39194389005528895709
H  -4.14632993539103722469 -1.87901898211024809271 3.45276900254619967257
H  0.44800573496086482095 -1.57060470915257965885 4.53226071787078854669
H  2.41180858358343552794 -0.55619110846431984996 3.43193784920487843237
H  0.56595298464738941213 3.52213807990200944431 -0.33535873720888653704
H  2.90428235256717570678 2.68580803075262819490 -0.06141388255834512311
H  3.32845239259220893047 0.98941180139414786066 1.72443185731122716753
P  -1.61045830914479415341 3.17423183538231334921 1.15027011771458798073
O  -2.66837337336736357685 2.75095121898403771610 2.06906699116471370914
O  -1.92246662048751471019 3.52158633813406218849 -0.34756004347729574366
O  -0.80921353487198988130 4.44399327817581379918 1.67261615864307033874
C  -3.06759234800083468997 4.31354768418012746167 -0.70786430088403740069
C  -0.78083252495244070968 4.77585676358894772875 3.06435651731658564856
C  -3.03393902227450329434 5.69746707166509036568 -0.09208868789052948589
H  -3.97765927975962085839 3.78728974967920883898 -0.40288779951435838012
H  -3.02142599829267410882 4.36846234732027483005 -1.79676063351254944322
H  -2.09360231163572318991 6.19263172267196182474 -0.32024247518902171361
H  -3.14762876176541350759 5.63027979946676637724 0.98868405322541175195
H  -3.85366981985136813904 6.28691910570930723168 -0.49257559757337776585
C  0.18702072355523213787 3.89355376196720914805 3.82979960001820352034
H  -1.79049527608941061452 4.67571173212811075359 3.47386271287868986235
H  -0.47565001756055513837 5.82315971194903703179 3.09446232674939425422
H  -0.17696669667921893776 2.86741474040381350008 3.84283015914733949714
H  0.26168734173761887263 4.24830557959451660111 4.85339732730135420269
H  1.17209949771703558774 3.92551672875402690721 3.37164418105363195011
*
