52
Coordinates from ORCA-job 5 E -1603.818550625056
  C          -3.42423509670373     -0.89065325463878      1.61120303948934
  C          -3.21851847808408     -1.82143944733225      2.64007921299461
  C          -2.00401322511209     -1.89899018004675      3.28766906298903
  C          -2.43474764209599      0.02064206420532      1.29451441341006
  C          -1.20900209556308      0.05445925899585      2.02258795142710
  O          -2.48496174347287      0.83492994710864      0.19002579166702
  C          -0.96779512370762     -1.00537623768933      2.95600103060119
  C           0.35190750658593     -1.22314138800163      3.47109266488651
  C           1.40539290892032     -0.50406807604474      3.01385693684662
  C          -0.13452480596896      0.98478251141812      1.78978187003482
  C           1.19217848672631      0.61615907169370      2.14801566362046
  N          -0.30361029990368      2.24859081426116      1.22829591441355
  C           0.75676533110848      2.93444029952480      0.73073463911368
  C           2.05268919156735      2.47816585147352      0.86121702702736
  C           2.27224828289890      1.36474075142610      1.65281492257038
  C          -3.67742006043092      1.09731540535463     -0.49297465406043
  O          -4.73697118148160      1.22692198316254      0.08734958737756
  N          -3.46024354595071      1.22342173952477     -1.81303969404818
  C          -2.18474993428044      0.98992597406991     -2.48815441756809
  C          -4.57930931978196      1.57800035945021     -2.68266155460436
  H          -5.44895422614585      1.82100311149131     -2.08011860589690
  H          -4.81965863376639      0.74097012766945     -3.34418388863924
  H          -4.30847764151708      2.44088391793793     -3.29538540313015
  H          -2.31256347737761      0.21242348609279     -3.24598892657867
  H          -1.42693886223362      0.67572134261623     -1.78011843476203
  H          -1.85651276893040      1.90750738101900     -2.98324390239788
  H          -1.81529156880346     -2.67309956794698      4.02284371185113
  H          -4.34879052651550     -0.90222069815853      1.05356058247699
  H          -4.01231704676288     -2.51910136088868      2.88291559809206
  H           0.49979349999537     -2.03582800665722      4.17359080198494
  H           2.42179504168831     -0.73561034574096      3.31100125932947
  H           0.53797637633475      3.88877147923386      0.27425090245398
  H           2.86417229853540      3.04661620281909      0.42753330220928
  H           3.28234067416109      1.05294716328303      1.89504581273806
  P          -1.72409395687500      3.30532627136178      1.61452756990399
  O          -2.69615625050799      2.62853078399473      2.48894959130340
  O          -2.07772622851992      3.75213437985038      0.14686287927153
  O          -1.02016401747983      4.58554077490152      2.22886907067856
  C          -2.91033378816243      4.93935814841010     -0.15388849212285
  C          -0.97415489870918      4.90321657227225      3.66940968434103
  C          -2.72023473831397      5.26864680656390     -1.61403661551205
  H          -2.58431195074436      5.75160410323834      0.49481512207047
  H          -3.94052318374492      4.67281575115212      0.08081406285288
  H          -3.02371205246208      4.43392953985878     -2.24819648865496
  H          -1.67907895665412      5.51858779544002     -1.82767505448341
  H          -3.34011168077500      6.13321936270220     -1.86543540242572
  C           0.33693684194907      4.46086637159300      4.27973779104082
  H          -1.83392431040681      4.43736285680949      4.14901356593923
  H          -1.09326762174126      5.98464252805686      3.69728931101470
  H           0.44592182520229      3.37413394345829      4.25814613736841
  H           0.36671091244237      4.78337827935335      5.32414001177510
  H           1.18426177130668      4.91195406635254      3.75939502203363
