34
-55.4408769335 converged=true
C  -3.35376279992966619403 -0.62938332631936966255 -0.98291902019988841577
C  -2.74163567778435490752 -1.65396753206475333187 -1.70083327012608154227
C  -1.37556057110036400459 -1.77361463115568529503 -1.68985554185761888135
C  -2.59377832163920052366 0.28947157483868263261 -0.29126838017414902193
C  -1.18518256682654898881 0.23058864571862797144 -0.30793397495779634143
O  -3.28313576694100017761 1.27891215907834410181 0.39253390567276319478
C  -0.57974430809541521725 -0.84984392244581397069 -0.99518280783768264808
C  0.83765897162851232771 -0.99941651125977515324 -0.96694484835660599042
C  1.62532363545541747030 -0.13324257704872946584 -0.29134679365287491359
C  -0.33981572169269685935 1.20155618808551678534 0.33794909142459522711
C  1.06099378317829384777 0.99155102761471525241 0.37121776928827338038
N  -0.89160482556474629501 2.29709441070834641252 0.88020448050241895110
C  -0.12737892844849171836 3.16172913775715436202 1.50218360694920360920
C  1.25508534142907479669 3.02054943705290490641 1.63709383834394195389
C  1.85145982118581375886 1.93049095025746342280 1.05206844754513428875
C  -3.04214894254066781087 1.40620577357731368906 1.72629620845151654507
O  -2.49568855261252986466 0.53024716228100599036 2.38580922339505407948
N  -3.57862348866780832779 2.51502633883670112525 2.24077142925116401528
C  -3.46729674865841852593 2.78653267554346806278 3.65577445111836807357
C  -4.19915828413403158237 3.55718519172478275792 1.45473877439351650942
H  -4.19595577246243678360 3.28081188523075040209 0.40597626620533888708
H  -3.64686879558558540992 4.48869862025915988823 1.58512593768511966807
H  -5.22622419340026755918 3.70114038984416060529 1.79233111571136438656
H  -2.97556703009237244473 1.94347967362822404702 4.13612545209459003814
H  -4.46095812968806182397 2.92338571226544274850 4.08294430685029841044
H  -2.87785541639052455665 3.69005593182455582379 3.81659500312575428183
H  -0.89127192018300471776 -2.58341459768552850207 -2.21303302893003905893
H  -4.42821531638336018943 -0.54075895530933260069 -0.94729975834403012946
H  -3.35144855982815181861 -2.36092499855638804362 -2.24025591010660996005
H  1.26473192443005877372 -1.84010580558807324003 -1.49198213931114054276
H  2.69645568134601498755 -0.26306532522173181610 -0.25034568316961969270
H  -0.64266899218879569577 4.01984478260729538590 1.91199369323563916900
H  1.82759222514087293909 3.75875270627759405784 2.17456109445499290445
H  2.92040825966053807505 1.78225782008492328323 1.10128704506063868074
34
-55.4407185465 converged=true
C  -3.32365374716909123265 -1.11365992868202678956 -0.29579280493737813984
C  -2.73100605397555717957 -2.04803208649721391055 -1.14192066097935307489
C  -1.39731054639361662595 -1.94640037175689895044 -1.44465202399028158631
C  -2.56997069022985957787 -0.10897358942557100470 0.27217364817070582861
C  -1.18385026394702075336 -0.01369459150276619575 0.03135928380969144058
O  -3.23151576501365145333 0.77962196368617053821 1.10385307299340817977
C  -0.60780231915016758037 -0.93416149823513250361 -0.87771888863533176206
C  0.77094100825023947898 -0.81866148882811962118 -1.22130318539036464287
C  1.54747578004928887374 0.15890784721389206169 -0.70298254105704272021
C  -0.33443610725806482975 0.96881449863902591169 0.65397622581930969776
C  1.02005613814571538533 1.07153865898840350290 0.25183299975767931000
N  -0.83444221810779861670 1.75480015841730363491 1.61946968802906021700
C  -0.07265645611633719803 2.67611154763844805160 2.15809700192975606470
C  1.25626987849212912174 2.89691865606340792638 1.79141633681890199981
C  1.80701258760537730730 2.07419946950326838930 0.83968346597750254112
C  -3.14281386458764355751 2.10409984826589102624 0.80321945194364086085
O  -2.79282218350195154954 2.51675446700074667561 -0.29596640711595112450
N  -3.60647735529621726869 2.86479640803472479504 1.79689761872072129023
C  -3.93132305291366623834 2.29169465154733931200 3.08687706558590502226
C  -3.61144698060591640143 4.30427245089342136453 1.67225927788310357869
H  -2.91051400839943896770 4.74753841112418228931 2.38073272599095542290
H  -4.61423606336616209944 4.68738022853357616526 1.86073792598428067180
H  -3.30758757323073382395 4.56220640005665689642 0.65964840310110417487
H  -3.04841551410247246778 1.82142023996747348669 3.52233935184176782940
H  -4.70792474207601330249 1.53527496523847295506 2.97839099361839920732
H  -4.28507529862943403742 3.08707565925087656922 3.73476590360136029290
H  -0.93466644080681848816 -2.64181090566567622346 -2.12755461965540693114
H  -4.37933576912085520405 -1.15237476641601932492 -0.07785697747104469713
H  -3.33482816550597771510 -2.83064821490685947225 -1.57269036677572482397
H  1.17466383604367963223 -1.52987969002031065635 -1.92555225416674402616
H  2.58456507065892449049 0.26144821638791571061 -0.98533307790676483151
H  -0.54354017163546919367 3.26927379146543906074 2.93036199153904952652
H  1.82638524778605515486 3.68265057824583053048 2.25950791868594169642
H  2.83844181143285467783 2.17932801763253669591 0.53610345059823993896
34
-55.4376780615 converged=true
C  -3.18242921420300683977 -0.60959024614772783224 -0.45214383816838432661
C  -2.68401153932855018880 -1.69150722546884035857 -1.17544888140915704255
C  -1.33833918745468261058 -1.79567972791638319485 -1.41110855265750023690
C  -2.32924168827839173090 0.35571887647971411894 0.03705485095563842979
C  -0.93713794559481722324 0.28485426981392969470 -0.19580983605881718823
O  -2.82738601832599378838 1.44807124405659704003 0.72194219468977838261
C  -0.44859966139613915992 -0.82037823029805623243 -0.93358493714983248335
C  0.94944108987521969034 -0.94722573061256531979 -1.18088734858151012119
C  1.83222110116333225527 -0.03494616365571223682 -0.71711864283009896237
C  0.00060585682237968008 1.26932592205442262845 0.28392351520169228918
C  1.38366705430454106640 1.09145379435262812606 0.02560288802298094080
N  -0.44698806679870606295 2.33611600609268954543 0.96302454330466891186
C  0.41097264709996816912 3.22061270653957887333 1.40966863174875722819
C  1.79264714414419867872 3.13173270887632604342 1.22060161479310824717
C  2.27693932172915047829 2.05696655806406614175 0.51709894219013996519
C  -3.67864077016141166609 1.26850860545051480344 1.76266480524833157872
O  -4.04562466971418110973 0.16839804632180332966 2.15455571137362822398
N  -4.04923901345476000557 2.42920264537170993435 2.30925210582896545120
C  -5.00721736117357796303 2.45098129143520759854 3.39200096768906966815
C  -3.57058717409049730662 3.71530742303269345683 1.84988229015689098489
H  -4.31442462146783078936 4.19091351042458892806 1.20811095481485852865
H  -2.64380462023206597166 3.58133895310509320353 1.29883290757590152964
H  -3.39178822571516924711 4.34627310625726792637 2.71878111425922597277
H  -5.31711449047322481931 1.43037922223307356617 3.60627294623135519203
H  -5.87505432921247106037 3.04422057761557063316 3.10257861452460881324
H  -4.55273392159281709013 2.88596934017064832290 4.28253543114068868647
H  -0.94241583899219716347 -2.63115192412242393516 -1.96720812919462373358
H  -4.24059600204830111636 -0.52423973417050673262 -0.25891885480463594504
H  -3.36876285684505960560 -2.43791287409286283605 -1.54533282258097681705
H  1.28351420201211197103 -1.80204970314123635866 -1.74858610786598678288
H  2.89172022432389130842 -0.13635134779372704017 -0.89887872434372095842
H  -0.02292274570719521343 4.05242659884339850862 1.94874495423721372234
H  2.44690625689625917971 3.89223892928653469880 1.61473902475615771479
H  3.33458507121432123910 1.93785257869217164561 0.33153766651245103469
34
-55.4376598081 converged=true
C  -3.17305223076344322664 -0.73347796113292806908 -0.31345138265155125801
C  -2.69313723638889168654 -1.67981791470412833434 -1.21689619890853384376
C  -1.35149670431060409115 -1.74561869438607741856 -1.48823852989276961267
C  -2.30753677713441751607 0.13847760853381840818 0.30925645112267990955
C  -0.92047141514440644627 0.10084445120703300347 0.05120296726405559884
O  -2.80298156521305141808 1.04311264757965771466 1.23523122261185802628
C  -0.44889139003072631162 -0.86650024968397110214 -0.86898804635722037837
C  0.94146547189255791466 -0.93462222473142908541 -1.17570322939017857244
C  1.82899720038785673637 -0.08300222434080617440 -0.61527603714767309384
C  0.02607041665719855850 1.00109219883232691828 0.66089516393178471265
C  1.39671148170681114209 0.90534049425115070697 0.31113186492777455960
N  -0.40406807756421048161 1.91316453885051385164 1.54538831343642701910
C  0.45707999960479339663 2.73992789213689214023 2.08612229466408560796
C  1.82538241816574497989 2.73602926784066369237 1.80218731230488438122
C  2.29407677612965299474 1.80521836802018587065 0.90846574086217435351
C  -3.68824569173231697761 1.98042075202815404111 0.81515404115381906447
O  -4.07531880963653136973 2.06533702160247534252 -0.34358729363544004975
N  -4.06738226035479932818 2.79107979491975966013 1.80569849110629299105
C  -3.55649329770585698185 2.67964739827864217858 3.15512406360591990406
C  -5.06943142822213843601 3.80777810937361049781 1.57597984666762380712
H  -5.39596254302131939085 3.74951660256778573910 0.53992563261567194655
H  -4.64874019793490234065 4.79513220597096356812 1.76800314491042409593
H  -5.92029714482764823913 3.64163923427248326092 2.23730499263511894981
H  -3.47722299131915590920 3.67988010451490543673 3.57578247288054917874
H  -2.57473203936719396978 2.21417910627178171623 3.13272948197614065080
H  -4.22914221043915272702 2.08133776568269990292 3.77252326931384196484
H  -0.96933973226760650199 -2.47221296116254007913 -2.18828956397773533027
H  -4.22884986411338381629 -0.66518599981890114137 -0.09894032541988140306
H  -3.38692788230289210105 -2.35263921854849034077 -1.69505459461317053993
H  1.26465273041315473534 -1.68739374406831199593 -1.87815389356188688907
H  2.88079873365900063220 -0.13128485206580586819 -0.85440049217436242479
H  0.03709864698967457741 3.44739551592949267089 2.78887910341413425286
H  2.48292517106937493665 3.44389116545635376454 2.28001300421358044090
H  3.34262244515137663115 1.74914380767222388258 0.65436071172242504801
34
-55.4376393127 converged=true
C  -3.17304660491820644808 -0.30054176486962225212 -0.86948459997684945932
C  -2.68002665383439975244 -1.37078792443806118939 -1.61367535612608103968
C  -1.32991922490701997006 -1.59694377650552965520 -1.67450838334458862455
C  -2.31127394156339827092 0.52982080398774755725 -0.18684292623571940872
C  -0.91504474772163846286 0.31992069501866715608 -0.21881568340300594500
O  -2.80844111777544691577 1.62095852586478805790 0.50493582116236579438
C  -0.43075272473664649731 -0.76681249115097815938 -0.98642392037254644777
C  0.97001539028403960252 -1.02298557813253321314 -1.04931413651231952855
C  1.85710968337678461459 -0.25628506033888642790 -0.37686360495380943902
C  0.02951769102688461821 1.14188699629613399367 0.49573420416026037216
C  1.41231249637738431879 0.83806750237856753039 0.41451186292135411282
N  -0.41223570884985027973 2.17545800416339396577 1.22766887505510657874
C  0.44851777808553472404 2.91175469226357463981 1.88693436234252609474
C  1.82871073331798306150 2.69364342506329990101 1.87813365508160123873
C  2.30919776908810803207 1.64722888971683412151 1.13039294196588158137
C  -3.73608011041423537790 1.42329502302010113546 1.47429323155082037111
O  -4.17332356660313497088 0.31928299511065427740 1.77142098566446626329
N  -4.09428781330566060603 2.56607891341484162240 2.06463623651556194005
C  -3.52384661040749325167 3.84984528313292750923 1.71753239328996576418
C  -5.12661963500608219846 2.57137794514776896193 3.07688030169827353433
H  -5.49057912301881412276 1.55487871678803690756 3.21032632622393343524
H  -5.94751975657513298756 3.21621714578706763277 2.76201102536247589114
H  -4.72072136102480754971 2.93671153002883578154 4.02059861835440024436
H  -2.54781503810777376628 3.70091400444005769188 1.26358551325487633576
H  -3.41773205852398120896 4.43612131938411913268 2.62826574681937152889
H  -4.17429732972766309729 4.38197643901898992169 1.02098743585783813259
H  -0.93805612942994354153 -2.42102407443690470501 -2.25011661631235870829
H  -4.23490967510332350088 -0.11547513740672887828 -0.81450029995874762001
H  -3.37082496288370592197 -2.01060865686381839978 -2.13925640075878131796
H  1.30217360291828998520 -1.85522642228398604303 -1.65064621915416842590
H  2.91751730107672102577 -0.45458645215515258720 -0.42171700096757036569
H  0.01815245505409235349 3.72570181673371969566 2.45525516488135764348
H  2.48552715342596819426 3.33581532239458811162 2.44203608538700400743
H  3.36676184243911968963 1.43215135128589698965 1.08040435484619901096
34
-55.4356538788 converged=true
C  -3.16652765140291236889 -0.74306232658536264246 -0.23260395303284353563
C  -2.72502454250235981448 -1.66835731868220338292 -1.17662178665978167658
C  -1.40623478636057508417 -1.69112794347565631448 -1.54777778511331720601
C  -2.28650856148217096475 0.15779322876926138441 0.32640277674306777955
C  -0.91891858506391732586 0.15805687605514240346 -0.02839167910586526400
O  -2.72215076724391646934 1.04735336039097437499 1.29149978530245812536
C  -0.48707059912322958617 -0.79029755321136119228 -0.98675870095761863965
C  0.88020943849359478683 -0.82123664581459476786 -1.38866281531911339719
C  1.78383560141726538184 0.04548622324398388095 -0.87957862196009561906
C  0.04582809595598469343 1.07406309668203370222 0.52663740205739573152
C  1.39247720755366599654 1.01266127853375720314 0.08637011612276745964
N  -0.34306268141382489922 1.96651042013853749602 1.44913019498465334145
C  0.53514515350655078585 2.80340975323118879459 1.94507327960850706638
C  1.88174560364809884128 2.83192402822156363840 1.57281327076481503013
C  2.30884696868122674118 1.92346947352118791130 0.63617918850486065985
C  -3.78249178808879449321 1.85373052835113272252 1.03360257547680145507
O  -4.39397063681265187540 1.85503217363189820688 -0.02679771744772374564
N  -4.07494699173007823845 2.65625601958666024416 2.05995409818673769209
C  -5.22418360989218211188 3.53188450322609615029 1.93486386455561976128
C  -3.31974774128029981313 2.68573648305847045847 3.29395401163845935599
H  -2.36085820228825848943 2.19977109021847905268 3.13690766923864128302
H  -3.86619812394461614957 2.17231614813560280908 4.08697906476599825965
H  -3.15436805346156567964 3.72268772631006950036 3.58138006605286385309
H  -5.30779196725147173197 4.12791513613782257153 2.83669691066076801178
H  -6.13399964537575659307 2.94575921272473051360 1.79473352096989491322
H  -5.10825102351954551949 4.18282087933615454034 1.06688750351484973322
H  -1.05517894320453953227 -2.40237843274744733435 -2.27916465716426586141
H  -4.20454839835968297024 -0.71597701528234058976 0.06146110436047658165
H  -3.43090722900907429960 -2.36158777327065028118 -1.60559001264515832652
H  1.17238144801934907058 -1.55943501124756278564 -2.11961164592901329939
H  2.81794377535794193790 0.02439017771021001479 -1.18950073989867077806
H  0.14814379508631003723 3.49266263713333735552 2.68385392126646271649
H  2.55528279623241250107 3.54647667123518406385 2.01728311664254889024
H  3.33926065747511913173 1.89312290188388177015 0.31277667871745712391
