!XTB goat ddCOSMO(water)

%tddft
    NRoots 3
    IRoot 1
end 

* xyz 0 1
C  -3.06752287103923526601 -1.43435831473892316801 0.16984916817882181328
C  -2.46984533450219911899 -2.34966376558500211758 -0.69222369723679766373
C  -1.22430336777950676819 -2.09261104437477518658 -1.20538521801666220767
C  -2.40376764811373622166 -0.28447439797123563743 0.54276971993128886318
C  -1.09588432949153014029 -0.02233773009250381025 0.08193597148949569031
O  -3.06499636131998931532 0.57040068246234587601 1.39784780221665827504
C  -0.52336174692372872119 -0.93419695983867545586 -0.83692873392357169937
C  0.76244385364517219816 -0.66604818279777511236 -1.39074879959724762024
C  1.45839287757204361107 0.44321870546784064571 -1.05522825420540744545
C  -0.31959396252405442018 1.11525621578416700430 0.50281452880431842800
C  0.94354774532827268008 1.35469132015285720350 -0.09318823266313638887
N  -0.79144386387134035843 1.91077424136794582488 1.47132810841203309771
C  -0.09963388960183006127 2.95799889848734309794 1.83986283364681924013
C  1.13070834136383480129 3.31246038358829020254 1.28096215584141104316
C  1.65735358856684933393 2.49225515870674207974 0.31367380928346383362
C  -3.21548641801195644874 1.86390577745979468816 0.97633186289881723763
O  -3.09056141938650519307 2.20742174079780539842 -0.17496206761175769895
N  -3.63450496405364464891 2.66685482607118640175 1.97534963719386413850
C  -3.96032310653770913689 4.04031069660626496187 1.68472705073079964677
C  -3.72312196647545601280 2.25785698204989548898 3.35322717597892783203
H  -3.22182297654834748357 2.99425949469242924650 3.98544734201810513241
H  -3.24038555440540987362 1.29371135632447753494 3.47864658384662384094
H  -4.76891842531317866616 2.18238129113743184462 3.66620697425023678306
H  -3.84740263095191226128 4.19815380494793899402 0.61458211341507029690
H  -3.28970395525826697636 4.71582553978040497356 2.22229040731935123532
H  -4.99041375542383658370 4.25525939877253911447 1.97982086488619057896
H  -0.76600234977655190516 -2.77843727856407207710 -1.90285520831786492124
H  -4.06298997237291725781 -1.60341909569631879684 0.55051547792050858909
H  -3.00393122211439411728 -3.24557289232116907840 -0.97114644293215279802
H  1.16302990482835277852 -1.37389651997540784834 -2.10228950094499511536
H  2.42342803746063362169 0.65341336988140474862 -1.49476673302918494635
H  -0.54045512606199042072 3.55366622534108778098 2.62964013119329598211
H  1.64857512475566658772 4.19853645602888025934 1.61434428502218962898
H  2.61705775695450260088 2.70423362319696591882 -0.13807112168042084965
*