34
-55.4408269551 converged=true
C  -3.06060146022172974156 -1.42535973751497002660 0.17485182332734719446
C  -2.46851928752325244787 -2.34470913912531342405 -0.68807303446479128883
C  -1.22146524982571835771 -2.09473121443970988764 -1.20059043234810536305
C  -2.38538354840440947058 -0.28334053934234937344 0.54833454229287625914
C  -1.07705978480187392066 -0.02661019808823312377 0.08959775983251200282
O  -3.04699865043108975016 0.57888437778134549383 1.40963066479948873067
C  -0.51219077451620997898 -0.94088595433763499987 -0.83281893757065927897
C  0.77186544272550183798 -0.67699245069118918483 -1.39307952220562847323
C  1.46813379222015272241 0.43517540689082989669 -1.06824586372770569120
C  -0.29614684629138321448 1.11057634815822359187 0.50385874880757375305
C  0.95877234696621593812 1.35204671725030101115 -0.10779168030092244057
N  -0.76018464946543851113 1.90881045494878787139 1.47656513119625998343
C  -0.06805354192438209382 2.96520751124838355395 1.82750506456608530215
C  1.15171583596856130782 3.32187554708286381100 1.24914300808551392841
C  1.67212475560927109619 2.49601088017429306731 0.28311881079568823605
C  -3.20585710861859318754 1.86825425763624797248 1.00384152235184842539
O  -3.06206976080020787379 2.21703892893936460595 -0.16186257081409810565
N  -3.64215222287508044730 2.66352534735291568424 1.98249793413313479817
C  -3.96157109453654188158 4.04587441459721564030 1.70823635953963104406
C  -3.79442594216250839168 2.24387407653734438640 3.35716006601703886858
H  -3.29504605499164204829 2.96388381294396019427 4.00502734883114275277
H  -3.34783084730411006902 1.26451081292676126289 3.49380280269287002426
H  -4.85322497122613594200 2.20212963214585277782 3.61812119682390243014
H  -3.84235343335451950963 4.22717216256173866640 0.64226000847045972009
H  -3.29037238741172055612 4.70155756207647179679 2.26429650640279378493
H  -4.99151703549343395139 4.24973927155057573657 2.00199988601817890910
H  -0.76683908650781551497 -2.78086052976837772022 -1.89811261017454224742
H  -4.05660960362861455764 -1.58416212085193164327 0.55718877202121519510
H  -3.00936832759020855832 -3.23525554857098995853 -0.96562260545460187888
H  1.16680149782806785730 -1.38905443873107325992 -2.10141483327399258840
H  2.42887206443798353561 0.64647729840763790143 -1.51337314904632846968
H  -0.50564944609224482530 3.55840491901832844945 2.61900044460122272127
H  1.66645939730290493230 4.21271648569167478371 1.57008706721935697992
H  2.62490599555630899076 2.70604565269083119361 -0.18076023512567884755
34
-55.4407058158 converged=true
C  -3.18402793024697317037 -1.28877628113808895272 -0.10055993917747751976
C  -2.50595675118890826027 -2.30913529748256696195 -0.76366896236897041650
C  -1.17780404768424373785 -2.15981617109223389406 -1.07058540167469429250
C  -2.53954035674000877520 -0.11184304378244247502 0.21435871528689859344
C  -1.19205599616029123133 0.09877870442367564507 -0.14401534424045692173
O  -3.28349882697404016341 0.85503556011335035691 0.87117830734651857671
C  -0.49956962573795138383 -0.97040070136900413722 -0.76274462594689496076
C  0.88854577407409385259 -0.83588532468259990615 -1.05828107983381070056
C  1.56836673694274120194 0.29211023466369645529 -0.75377781484171546555
C  -0.49017342434733901513 1.33412052364005195848 0.09213804523198143581
C  0.89834899837099291275 1.40736926196999267979 -0.17944046728054785511
N  -1.16725241011818026138 2.40045626462594041683 0.54411273983467012272
C  -0.52065718583069953151 3.51239686966467168361 0.79899755088985113805
C  0.85545571572503931179 3.66844169359302263445 0.62273941434182145116
C  1.56398559301547201983 2.60777881461137983621 0.11387882425624096250
C  -2.80029550886493350248 1.32320946649766479908 2.05457742395943343539
O  -1.94243001441709872701 0.73735553258601527205 2.70375352476764962972
N  -3.46991855070883836731 2.40207856122000196208 2.46568839621731816791
C  -3.11412383361297617768 3.05123269820081111092 3.70665591532519300699
C  -4.41979437344970627066 3.06945750276431228443 1.59967536556462874842
H  -3.91289234333284552392 3.47040620269492894323 0.72054759414264846207
H  -4.88463605503423892173 3.87491627331871679729 2.15931560483263407235
H  -5.18312733462463803846 2.36696328388136834064 1.26799079717595430949
H  -2.70638828020759270032 4.04366782845290106962 3.51110891283801462848
H  -2.36044204558766779201 2.44611859300416645269 4.20681673789116050699
H  -3.99415079966908104225 3.13606842921253647916 4.34410623038500265380
H  -0.63210312907813825944 -2.95706222465021806300 -1.55077462595011006385
H  -4.21763956881154022938 -1.40506865354528565071 0.18488828381013788782
H  -3.02783593329295630525 -3.22065235865905830082 -1.00743687640390833238
H  1.38769321868042228019 -1.67417423739880155686 -1.51971772112707492752
H  2.62581924987373405145 0.38153820184160747164 -0.95276278457154395252
H  -1.13261616498961847910 4.32854580419410694958 1.15866758804323088938
H  1.33288525860194484451 4.60311145159801515803 0.86766827364180465487
H  2.62598996862570288613 2.67948655476109021123 -0.07071859746294673066
34
-55.4376598081 converged=true
C  -2.91063360705793883199 -1.13435886999633228633 0.32480657176503296979
C  -2.43227721386733186648 -2.11650969736437133406 -0.54043626060414184931
C  -1.18289508954614963621 -1.99270410169025846692 -1.08968320179953215288
C  -2.13604067560613097854 -0.03760093064013370068 0.63191628374327046824
C  -0.84617921943837848264 0.12354866452585677727 0.08214687265796738469
O  -2.61653871518311387234 0.90496496472397880417 1.52743319379986619566
C  -0.37480109635777059118 -0.88314463179174418350 -0.79493138166583310333
C  0.91502215555198640473 -0.75888052968575481216 -1.38883492791320550808
C  1.70288265742964028959 0.31189848257103491846 -1.14438458848316271244
C  -0.00200855512145592385 1.25968217185159825355 0.35543895847589068726
C  1.26618611171686845651 1.34677400491247123426 -0.27245990525746377475
N  -0.42928442541393163623 2.21406884994241881515 1.19556074042570537053
C  0.33447864083489142750 3.25297560712170508168 1.42975215812699385509
C  1.59451950930528685291 3.43951150613119338573 0.85495902117808253440
C  2.06083198089475283510 2.47208012867881254948 -0.00028994165937668015
C  -3.73701637697839528229 1.59563393418422982961 1.20153431563214629918
O  -4.34887646868526900334 1.42509705437438283226 0.15450888461679479491
N  -4.07439778057852741711 2.47731344250689078379 2.14541246556948372870
C  -3.30158434437894809932 2.67409355219931255121 3.35305937926258845749
C  -5.28643824519587735011 3.25559987638967296419 2.01980676504657008508
H  -5.78759476096303515646 2.97608886674216943646 1.09560924895379985244
H  -5.04520828596729664639 4.31854249162034786735 1.99366725714455661489
H  -5.94259695218851113907 3.05373472681579105625 2.86693825119773171295
H  -3.34680297425133055356 3.72743093219099019819 3.62164527765927601877
H  -2.26902976100445830099 2.38746168993565355265 3.17225389147951819524
H  -3.70766085727536465200 2.07591485874777736953 4.17092053608668589249
H  -0.80370882838096113776 -2.74546194717049552025 -1.76320234445877899176
H  -3.89697958683517375889 -1.21558474951305739431 0.75598100620673625016
H  -3.05442868872959039095 -2.96689129627204817297 -0.76945175617893035724
H  1.24241588564393090621 -1.54763327005665130010 -2.04855786979409737469
H  2.67660767134697286096 0.40792299866056991320 -1.60093367905813543928
H  -0.07663900284264113516 3.98105794548242553077 2.11651288729541819933
H  2.17471347726067998352 4.31764099349792740412 1.08736360978469503991
H  3.03012342389512356888 2.55756228752382108738 -0.46968171962528815211
34
-55.4376363239 converged=true
C  -3.13933035785265213136 -0.74219856299152708878 -0.29866995598676149282
C  -2.61558327729885053969 -1.84482582282535489959 -0.97078869304097625825
C  -1.27367442812417408504 -1.90707486023356920235 -1.24108664230800913586
C  -2.31567662519438277613 0.28699203360911418326 0.10311526099972900816
C  -0.92861095532648985085 0.25743076414705745592 -0.16309835865771904473
O  -2.84937953528391751945 1.39962174287103580106 0.72831118687714435644
C  -0.41349545928942021966 -0.86966857790550400331 -0.84801984910537930862
C  0.98171838604740857548 -0.95395370843469717848 -1.12769155641526896972
C  1.83706650273362637193 0.01977121433690154362 -0.74443341682389185809
C  -0.02025352677743175178 1.30465374495910446662 0.23314863274621977496
C  1.36148827867029531546 1.16892481316700291849 -0.05530279496200141143
N  -0.49427518050241725511 2.38800526611240737651 0.86610293122585813030
C  0.33642755569001026039 3.33194234685809753671 1.23568305463046490544
C  1.71465257412767613232 3.29058703631463611572 1.00877185959640369717
C  2.22539369105887940847 2.19764521985961502892 0.35350289507263621402
C  -3.61292138051063504989 1.24650987206915564443 1.83873875799656305574
O  -3.85932446249753535739 0.15885742014916259812 2.34334233687656290357
N  -4.04257555195837348094 2.41724529120663955695 2.31651799663360824511
C  -4.93201123630905691186 2.45502707556556298840 3.45587496813489902792
C  -3.69507104025356492016 3.69404586300409576438 1.73146176983495214685
H  -4.51147353072023360454 4.06189112229076609850 1.10726124878231213522
H  -2.79617161952326487295 3.58546518687133630721 1.13118730607962425516
H  -3.51277890688967620036 4.40354006204273229486 2.53681024395891219214
H  -5.14261077358834839401 1.43476414393753959331 3.76931369137179173023
H  -5.86197576664062403040 2.95263655277490100204 3.17943224806076063516
H  -4.46239992105764216035 2.99667840455926448584 4.27739431311045770201
H  -0.85793382024002939890 -2.75712472271778530342 -1.75937878557876947738
H  -4.19428792529426708313 -0.68867797720704082565 -0.07728709732659100329
H  -3.27736777934008172153 -2.64042298159262234236 -1.27387279220694837889
H  1.33666791367738291285 -1.82681563415423497965 -1.65373663552081362482
H  2.89458394445052347166 -0.04880568371829174801 -0.95142890851334815938
H  -0.11827713947928608640 4.17350661235618503042 1.74141708133350237020
H  2.34594911409963557958 4.09959561712885101059 1.33853643126024990373
H  3.28167224672123980511 2.11206113273964657395 0.14325127147469352007
34
-55.4375991591 converged=true
C  -3.13675380891648725168 -0.74299423022356481106 -0.27676506594011451856
C  -2.61968460351983090106 -1.84574792007152832518 -0.95408729153009153023
C  -1.27835835215936022280 -1.91667311210763391394 -1.22358637304638651067
C  -2.30607287093292478986 0.27662008196068299526 0.13557872862857012208
C  -0.91850407839846648361 0.24024757340904923097 -0.13410482949932822638
O  -2.81895251108784172800 1.39231658049016471246 0.76841686756670779523
C  -0.41175131068532078160 -0.88619317909731409877 -0.82619864048679692026
C  0.98166733391125382546 -0.97766298644288451847 -1.11221986350168333679
C  1.84412139456131174420 -0.01020322062870371305 -0.72938586068865451928
C  -0.00246160649913429452 1.28136195442545108847 0.26115402149337546556
C  1.37731203107609245784 1.13915831164058567460 -0.03484616006025642587
N  -0.46624835779037687722 2.36717084554299450616 0.89788334102721678587
C  0.37209689606646678683 3.30590267271920801306 1.26421308058653414363
C  1.74864594961778618831 3.25752472944437787561 1.02947216733955437817
C  2.24934836641910607113 2.16244617909381009468 0.37018891592820252212
C  -3.69195364288166327782 1.26338935903222582269 1.79883000911131629707
O  -4.07064130096341880716 0.18524821152968162785 2.23733396278416307723
N  -4.06885766495457978920 2.44986682627440544024 2.28273126375639989760
C  -5.04877959212588933724 2.52467218919626201767 3.34337644198617311986
C  -3.58116265336935413188 3.71239836116540988797 1.77084252242301198876
H  -4.31582894692833196615 4.15911078038113046773 1.09847813921874504217
H  -2.64784731319354360579 3.55108215211737743289 1.23844538146780180909
H  -3.41197548930936189748 4.38238203763751155151 2.61202650134647429425
H  -5.91287763827263024297 3.09784448728629557834 3.00610042736144844611
H  -4.61347311136192850256 3.00841932562385228067 4.21813238485473629424
H  -5.35986880783738683931 1.51561660677620646531 3.60516293792942743579
H  -0.86830115293617760042 -2.76642544722715122418 -1.74675406421570200699
H  -4.19197817618802837103 -0.68501734908031464144 -0.06043708044470463836
H  -3.28749136090045768199 -2.63399584156532284851 -1.26321266920157349034
H  1.32904865441311215157 -1.85022502726068682755 -1.64378231873681568409
H  2.90022813237849330648 -0.08346105562764294383 -0.94175688970946591638
H  -0.07444752681724930987 4.14987608316570977252 1.77317995714037723864
H  2.38613759324492757941 4.06278224531126230801 1.35649107483965236653
H  3.30382554424906516033 2.07099178225927760266 0.15347897459078041482
34
-55.4356538788 converged=true
C  -3.04599605531912320799 -0.94096681628674483377 0.02582577955053955154
C  -2.57504570308516766985 -1.91049409148758453370 -0.85762660521413425219
C  -1.27679424080089787275 -1.86627352223815190513 -1.29359607590909275743
C  -2.21646706756223643708 0.07009768323586196281 0.45952278259426693197
C  -0.87072408993444228020 0.14234592138187518451 0.03533231916895129832
O  -2.67777035551067843500 1.00645435160297758159 1.36668818166682459747
C  -0.40819269924547385564 -0.85209079167933188259 -0.85993104509140627645
C  0.93760693560392072143 -0.81504700657306328182 -1.32832185059628260504
C  1.79111557730583204062 0.15946391525555903002 -0.94261865930253729839
C  0.04178267081969022634 1.17451914100489918091 0.45937322754224724219
C  1.36774021206300622211 1.17633295568528772890 -0.04352100089875021727
N  -0.37512418483327669705 2.11349229779838099219 1.32146910353374202884
C  0.45486452523562403982 3.05528988486457286911 1.69795958732734275642
C  1.77665772676683397790 3.15245173610092876970 1.25507624215149560243
C  2.23225431740448421181 2.19921604699499440017 0.37828543150505089532
C  -3.80977683459104232711 1.70406833499788801234 1.09655071699073847213
O  -4.46672066572562442843 1.56470074967270944555 0.07314545178718512286
N  -4.11876854334457842555 2.57027956817854352778 2.06462968165318283553
C  -5.33882795905238705103 3.34175673249486004934 1.92536152478870281612
C  -3.31332441040859171366 2.76654870105129324642 3.25066887502145052125
H  -2.32672677004194383699 2.34254675982210258667 3.08591902056173861268
H  -3.78054663700019899508 2.28583231197694214387 4.11189610413599737626
H  -3.21857634713184737052 3.83449645983322984222 3.43972560671391214271
H  -5.42897216893803236104 4.00762180181031979487 2.77626895026245712472
H  -6.20425806822417946762 2.67828341379407719458 1.88318962309004778177
H  -5.31468944821000910395 3.91977804854270672763 1.00023981163926656279
H  -0.90341221669087334867 -2.61115068437634434417 -1.97900697275001835607
H  -4.06849668144268861170 -0.96650155776957946685 0.37011546823600094402
H  -3.24189938921996745336 -2.69059835058482521575 -1.18867958497818460017
H  1.25452906569635391776 -1.59110731154179774194 -2.00793811685078571472
H  2.80852420561739668514 0.18923962007818584397 -1.30299286505970357553
H  0.04778253765273809961 3.77625615396261915535 2.39447112354443314430
H  2.41029842162910190595 3.95266224551491651695 1.60141983421658951059
H  3.24611435313437413086 2.21832530403187533352 0.00547833387136920091
