! CAM-B3LYP  OPT Def2-TZVP(-f) Def2-TZVP/C Def2/J RIJCOSX TightSCF CPCM(Water) AllPop SOSCF
%pal nprocs 200 end

%tddft
    NRoots 3
    IRoot 1
end 

* xyz 1 1 
  C          -4.64237910852225      0.90074384004881      0.69917274405417
  C          -5.28156605303999      0.13075979146694      1.66926122027777
  C          -4.54327396904873     -0.58564748494885      2.58095448007522
  C          -3.27169649488025      1.04206555695424      0.71731868509203
  C          -2.50490957418674      0.44287658543326      1.73623715227843
  O          -2.68678927742325      1.72050041693409     -0.34082336205659
  C          -3.14704102151241     -0.47729835550569      2.60670096840364
  C          -2.35090670614830     -1.32666462810763      3.43153399565577
  C          -1.00115563821095     -1.33204155425670      3.33440369538189
  C          -1.09869595293440      0.62820532834421      1.87162367844322
  C          -0.32771096089364     -0.35231743115527      2.54805006485395
  N          -0.47293660610577      1.73647336116021      1.39972954884455
  C           0.86296010680084      1.78051083224486      1.29545115090857
  C           1.65655212667705      0.74786517987797      1.74421645237403
  C           1.06488637947183     -0.28572203479121      2.45028443683986
  C          -1.78157991538960      1.02758686605176     -1.11905031660665
  O          -1.18429128302571      0.04620535479227     -0.70504355287978
  N          -1.63411306246985      1.55542847351298     -2.32815911017253
  C          -2.45016661087072      2.61407025947913     -2.87922776676178
  C          -0.65892248815788      0.99497352147798     -3.23942826292462
  H          -1.15889804744480      0.61268583660677     -4.12964680554221
  H          -0.13270428456686      0.18147600397307     -2.74593224432684
  H           0.05074679058701      1.76817749387824     -3.53290699134358
  H          -1.80958229060585      3.42949734444561     -3.21186042010690
  H          -3.14960658890291      2.97901861239857     -2.13532977423722
  H          -3.00235550656319      2.22971024245868     -3.73878867080728
  H          -5.02787309335558     -1.25778000926102      3.27091926785276
  H          -5.20681028425261      1.37737101356815     -0.08604517254295
  H          -6.35693580598722      0.05545275142508      1.65676367445054
  H          -2.86207045802463     -2.01786051316972      4.08256051359162
  H          -0.40181416615686     -2.04738284958866      3.87352204674550
  H           1.26733417043888      2.68919133486208      0.87643728032925
  H           2.72402744321644      0.79562499354649      1.60924665224891
  H           1.66579869206859     -1.03756973084835      2.93812776490475
  P          -1.25452980131769      3.31777159255318      1.41201637350149
  O          -2.65031317320355      3.37296121406261      1.84379138874734
  O          -0.82485039090071      3.80959601939058     -0.01244383810532
  O          -0.25870018084975      4.07670597101606      2.38844167905458
  C          -1.43270605737680      4.99379673134970     -0.56521341753450
  C          -0.59380089737657      4.26918208306195      3.76697768564561
  C          -1.13528219657633      6.23005767178507      0.25872582731228
  H          -2.51183885179510      4.83396710307569     -0.63021759430296
  H          -1.00392231114490      5.07444182096507     -1.56461691913453
  H          -1.61548657995453      6.15525994462814      1.23308778803460
  H          -1.52054485430823      7.10588064594018     -0.25543485710295
  H          -0.06383439506726      6.34499334689063      0.40206198579419
  C          -0.41670245963031      2.99448517532026      4.56968357025510
  H          -1.62793608238993      4.61875702976842      3.83355019064643
  H           0.08277751455627      5.05358191343974      4.10993769201413
  H           0.58699616911074      2.59850655009821      4.43714674425446
  H          -1.14587273499175      2.25025837538734      4.25268354079607
  H          -0.57528318879543      3.20867042401483      5.62239913172421
*

