24
Coordinates from ORCA-job HBQ-Keto_ES E -630.929049063093
  C      -3.697200     -0.605780      0.136830
  C      -3.676740     -1.975280      0.091120
  C      -2.454860     -2.660490      0.043190
  C      -1.237390     -1.988590      0.039140
  C      -1.191620     -0.555260      0.084200
  C      -2.489700      0.179000      0.137190
  O      -2.532530      1.402180      0.180700
  C       0.027490      0.082650      0.077060
  C       1.259710     -0.662300      0.026680
  C       1.177020     -2.088620     -0.016570
  C      -0.016640     -2.715540     -0.010590
  N       0.148820      1.457730      0.116870
  C       1.331280      2.097950      0.111560
  C       2.504360      1.417440      0.065540
  C       2.466590      0.009680      0.021870
  H      -0.700020      1.977000      0.151980
  H      -4.621540     -0.060360      0.174990
  H      -4.594180     -2.532250      0.092340
  H      -2.451660     -3.733480      0.008320
  H      -0.061950     -3.788390     -0.043960
  H       2.091700     -2.649270     -0.054250
  H       3.379080     -0.553820     -0.015480
  H       1.280630      3.168080      0.146060
  H       3.432010      1.953050      0.062490
24
Coordinates from ORCA-job HBQ-Keto_ES E -630.937700327727
  C      -3.700928     -0.602799      0.136329
  C      -3.690761     -1.983777      0.090370
  C      -2.484033     -2.675875      0.043588
  C      -1.244746     -1.996453      0.039529
  C      -1.202098     -0.570985      0.084479
  C      -2.489424      0.175764      0.137783
  O      -2.523565      1.424860      0.182140
  C       0.045906      0.072079      0.076936
  C       1.267864     -0.662764      0.026459
  C       1.182945     -2.081967     -0.016188
  C      -0.022536     -2.721158     -0.010002
  N       0.149869      1.447514      0.117154
  C       1.335027      2.108513      0.111898
  C       2.523483      1.425170      0.064748
  C       2.498359      0.025718      0.021002
  H      -0.727445      1.960232      0.153351
  H      -4.628876     -0.046477      0.174433
  H      -4.620323     -2.538158      0.091076
  H      -2.487071     -3.757484      0.008699
  H      -0.067271     -3.802478     -0.043486
  H       2.106622     -2.645341     -0.054217
  H       3.422273     -0.535450     -0.017181
  H       1.273726      3.186370      0.146915
  H       3.455666      1.970277      0.061467
24
Coordinates from ORCA-job HBQ-Keto_ES E -630.940434506781
  C      -3.692296     -0.592879      0.135774
  C      -3.691195     -1.982103      0.089806
  C      -2.501791     -2.680646      0.043855
  C      -1.243386     -1.997451      0.039793
  C      -1.208267     -0.583494      0.084680
  C      -2.480749      0.169903      0.137258
  O      -2.510971      1.436788      0.183666
  C       0.064370      0.061412      0.076748
  C       1.268809     -0.667328      0.026518
  C       1.185988     -2.078109     -0.015829
  C      -0.025392     -2.725644     -0.009668
  N       0.145396      1.432921      0.117256
  C       1.326313      2.113828      0.112278
  C       2.525696      1.425185      0.064176
  C       2.517955      0.038516      0.020546
  H      -0.750792      1.923655      0.153828
  H      -4.617870     -0.029722      0.173851
  H      -4.628120     -2.527462      0.090475
  H      -2.508171     -3.763636      0.009252
  H      -0.070330     -3.808050     -0.043041
  H       2.111157     -2.642905     -0.053902
  H       3.446309     -0.517135     -0.018164
  H       1.254396      3.191399      0.147354
  H       3.455600      1.978287      0.060769
24
Coordinates from ORCA-job HBQ-Keto_ES E -630.940688206490
  C      -3.691343     -0.590479      0.135296
  C      -3.689098     -1.980792      0.089283
  C      -2.501917     -2.678740      0.044273
  C      -1.239754     -1.993906      0.040488
  C      -1.210083     -0.582738      0.085622
  C      -2.481234      0.166914      0.138418
  O      -2.516933      1.436704      0.183663
  C       0.069455      0.062771      0.077165
  C       1.266923     -0.670312      0.026543
  C       1.186151     -2.079751     -0.015783
  C      -0.024874     -2.727198     -0.009293
  N       0.145715      1.432933      0.117795
  C       1.324885      2.116431      0.112503
  C       2.524221      1.422116      0.063562
  C       2.521319      0.040031      0.019994
  H      -0.754907      1.915944      0.155068
  H      -4.616833     -0.029209      0.172434
  H      -4.626922     -2.523243      0.089239
  H      -2.504590     -3.760896      0.009571
  H      -0.070941     -3.808430     -0.042607
  H       2.109334     -2.646336     -0.054099
  H       3.448229     -0.516005     -0.019189
  H       1.253034      3.192741      0.147535
  H       3.452824      1.976779      0.059797
24
Coordinates from ORCA-job HBQ-Keto_ES E -630.940736188738
  C      -3.690637     -0.588696      0.135514
  C      -3.687710     -1.978897      0.089700
  C      -2.500037     -2.676647      0.043791
  C      -1.237300     -1.992216      0.039614
  C      -1.209737     -0.581798      0.084568
  C      -2.479820      0.165655      0.136129
  O      -2.514794      1.435205      0.185075
  C       0.070689      0.064272      0.076710
  C       1.265326     -0.672515      0.026633
  C       1.186207     -2.082278     -0.015940
  C      -0.023850     -2.729034     -0.009960
  N       0.144733      1.433888      0.117203
  C       1.322792      2.117828      0.112469
  C       2.521175      1.420677      0.064135
  C       2.520750      0.040000      0.020697
  H      -0.757438      1.912827      0.153817
  H      -4.616185     -0.028908      0.173807
  H      -4.626189     -2.519466      0.090959
  H      -2.499706     -3.758397      0.009588
  H      -0.070850     -3.809635     -0.043127
  H       2.108194     -2.649884     -0.053871
  H       3.446448     -0.517133     -0.018091
  H       1.251912      3.193632      0.147113
  H       3.448688      1.976849      0.060747
24
Coordinates from ORCA-job HBQ-Keto_ES E -630.940742127722
  C      -3.691506     -0.588892      0.135087
  C      -3.687454     -1.978681      0.088828
  C      -2.498677     -2.675585      0.044644
  C      -1.236666     -1.991284      0.041180
  C      -1.209534     -0.580726      0.086667
  C      -2.480179      0.165240      0.140414
  O      -2.515457      1.434421      0.183328
  C       0.070643      0.065669      0.077617
  C       1.264497     -0.672949      0.026601
  C       1.185967     -2.082845     -0.015784
  C      -0.023570     -2.729347     -0.009059
  N       0.145138      1.434955      0.118145
  C       1.323232      2.118357      0.112528
  C       2.520689      1.419978      0.063144
  C       2.520150      0.039624      0.019680
  H      -0.757459      1.912684      0.155986
  H      -4.617801     -0.030473      0.171112
  H      -4.626032     -2.518936      0.087861
  H      -2.496227     -3.757260      0.009595
  H      -0.071142     -3.809806     -0.042482
  H       2.107639     -2.650714     -0.054421
  H       3.444859     -0.518994     -0.019799
  H       1.253670      3.194155      0.147294
  H       3.447877      1.976739      0.059116
24
Coordinates from ORCA-job HBQ-Keto_ES E -630.940744688518
  C      -3.691985     -0.589219      0.135428
  C      -3.687539     -1.978838      0.089444
  C      -2.498365     -2.675318      0.043975
  C      -1.236853     -1.991113      0.040012
  C      -1.209485     -0.580363      0.085164
  C      -2.480521      0.165461      0.137343
  O      -2.515506      1.434210      0.184894
  C       0.070408      0.066116      0.076976
  C       1.264314     -0.672818      0.026672
  C       1.185858     -2.082655     -0.015869
  C      -0.023622     -2.729246     -0.009770
  N       0.145378      1.435259      0.117339
  C       1.323689      2.118396      0.112394
  C       2.520947      1.419834      0.063863
  C       2.519996      0.039476      0.020478
  H      -0.757433      1.912824      0.154377
  H      -4.618639     -0.031404      0.173095
  H      -4.626098     -2.519209      0.090113
  H      -2.495213     -3.757077      0.009497
  H      -0.071393     -3.809757     -0.043029
  H       2.107664     -2.650440     -0.053962
  H       3.444332     -0.519932     -0.018436
  H       1.254679      3.194295      0.146912
  H       3.448046      1.976850      0.060369
24
Coordinates from ORCA-job HBQ-Keto_ES E -630.940744212396
  C      -3.691748     -0.589089      0.135405
  C      -3.687600     -1.978752      0.089373
  C      -2.498613     -2.675462      0.044033
  C      -1.237055     -1.991450      0.040129
  C      -1.209398     -0.580718      0.085316
  C      -2.480190      0.165566      0.137712
  O      -2.514591      1.434391      0.184793
  C       0.070371      0.065818      0.077028
  C       1.264422     -0.672736      0.026670
  C       1.185931     -2.082486     -0.015850
  C      -0.023649     -2.729314     -0.009698
  N       0.145174      1.434940      0.117369
  C       1.323477      2.118278      0.112376
  C       2.520994      1.419994      0.063792
  C       2.520079      0.039631      0.020416
  H      -0.757809      1.912382      0.154520
  H      -4.618366     -0.031110      0.172910
  H      -4.626280     -2.518980      0.089859
  H      -2.495698     -3.757259      0.009475
  H      -0.071433     -3.809863     -0.042988
  H       2.107909     -2.650081     -0.053990
  H       3.444424     -0.519833     -0.018530
  H       1.254355      3.194198      0.146891
  H       3.447956      1.977264      0.060267
