! B3LYP/G OPT Def2-TZVP(-f) Def2-TZVP/C Def2/J RIJCOSX TightSCF CPCM(Water) AllPop SOSCF

* xyz 0 1
  C   -3.28609260665609     -0.40615614381661     -0.65958858217974
  C   -2.82772916745153     -1.29824903288152     -1.63631245238532
  C   -1.47702484690859     -1.45473106198240     -1.84362746413947
  C   -2.37763249890616      0.32022257440595      0.09851763563519
  C   -0.97379537840659      0.19226313522499     -0.09381659175873
  O   -2.90460617416474      1.07401670585467      1.14728778490230
  C   -0.54373142333834     -0.71908607346258     -1.08280129872721
  C   0.85733820167293     -0.91586637814928     -1.33809114260337
  C   1.79819798182737     -0.23430504267528     -0.64530171892198
  C   0.04445292735068      0.92118208011204      0.64101499681007
  C   1.41007334207009      0.70591551024024      0.36365603666250
  N   -0.31463487926008      1.83248493780497      1.61190459597823
  C   0.61489524868520      2.50820487091430      2.28625037740697
  C   1.99402122408931      2.32808984524524      2.04725202947909
  C   2.38758582802999      1.42749834274886      1.08693139047546
  C   -3.33501304885836      2.34887108869604      0.86779522953755
  O   -3.28915228995160      2.81221692439881     -0.25777873092226
  N   -3.78008225006527      3.05787410233766      2.03482673965386
  C   -3.88645748885352      2.32148300265541      3.31444676399949
  C   -4.88970418891967      4.01555941830364      1.81597856654798
  H   -4.79725947196942      4.51242822855056      0.84106473824043
  H   -4.84326790411358      4.78482883277958      2.59828052956315
  H   -5.87676601171625      3.53195951166335      1.86591219388635
  H   -2.93245553049205      1.82856118895560      3.54454134306137
  H   -4.68339966138257      1.56333871807931      3.31275579415223
  H   -4.09863885426663      3.04090555352104      4.11678165893592
  H   -1.11253377794057     -2.15244199260055     -2.60664799158499
  H   -4.36427747754379     -0.28414830898986     -0.50350801114197
  H   -3.55154663483567     -1.86532708966576     -2.23088899493286
  H   1.14454130330629     -1.63553414655326     -2.11405727440990
  H   2.86688701849861     -0.38187887842761     -0.83872273022479
  H   0.24097823205495      3.21448732473804      3.03672131272725
  H   2.72600707846379      2.90292128838222      2.62259446508623
  H   3.44897317995215      1.26025096359198      0.87100880119082
*

