! B3LYP/G Def2-TZVP(-f) ESD(FLUOR) CPCM(Water)
%tddft
  nroots 3
  iroot 1
end

%esd
  GSHESSIAN "hbq-gs.hess"
  ESHESSIAN "hbq-es.hess"
  DOHT TRUE
  LINES VOIGT
  LINEW 50
  INLINEW 200
  UNIT NM
end

%output
  print[p_mos] true
  print[p_basis] 5
end


* xyz 0 1 
  C          -3.34673808040941     -0.78677132721976     -0.32404116597531
  C          -2.89662896391278     -1.71128159077891     -1.27143214911193
  C          -1.56346144415333     -1.74445166902682     -1.60197345082992
  C          -2.47082837687529      0.09169704384375      0.27457096101722
  C          -1.08607342375931      0.09621955520191     -0.03232671933869
  O          -3.01753331122978      0.89719074487669      1.26876612317815
  C          -0.64789305646612     -0.86076091472977     -0.99738453096799
  C           0.73605020953817     -0.93987366152830     -1.35736369882479
  C           1.65916708250390     -0.12587865031823     -0.79720695573077
  C          -0.09092063789578      0.98019887915765      0.56004552068688
  C           1.27106669455049      0.84917280609934      0.17112121405269
  N          -0.46719160765020      1.91244543904751      1.46442709178227
  C           0.44869912029120      2.70166895651181      1.99764477101664
  C           1.81235505377979      2.63929313357752      1.68280111447225
  C           2.21807194075133      1.70590392881037      0.76069102491168
  C          -3.33269051189299      2.19100807188900      0.94243157771232
  O          -3.24308743066879      2.61771785700118     -0.19902969788003
  N          -3.76375901457772      2.88585712175861      2.01233676322835
  C          -3.90323304373896      2.32286857976469      3.35066957263160
  C          -4.28313526580610      4.23458819563255      1.83012998537635
  H          -5.36008994123276      4.25716826148200      2.01833535594631
  H          -4.09039203097898      4.56553684279284      0.81549106543041
  H          -3.79455771950924      4.91294301503646      2.53187907178411
  H          -3.27817492033880      1.44491913981881      3.46365306681952
  H          -4.94361291481539      2.05308894019435      3.55404948402173
  H          -3.59328939637531      3.07372668201741      4.07848340967325
  H          -1.19345006266831     -2.45586760129821     -2.32950922385201
  H          -4.39015322226097     -0.74649799069856     -0.04059677163635
  H          -3.59818513222498     -2.39321663424608     -1.73397167449844
  H           1.02642261496276     -1.67920339667771     -2.09354833302536
  H           2.70472089937995     -0.19557668617344     -1.07180883831884
  H           0.09362457867243      3.43339523188854      2.71669681734327
  H           2.51359088484531      3.31402930369065      2.15511727183148
  H           3.25946042545769      1.61658238532610      0.47523194139294
*

