52
Coordinates from ORCA-job HBQ-DCP_ES-GOAT E -83.643436753950
  C      -4.603026      1.007654      0.696305
  C      -5.258988      0.236386      1.651895
  C      -4.537771     -0.522571      2.545469
  C      -3.227268      1.112053      0.710163
  C      -2.477641      0.475162      1.719662
  O      -2.625656      1.778012     -0.338701
  C      -3.140352     -0.449947      2.570120
  C      -2.360360     -1.338815      3.369349
  C      -1.010614     -1.370199      3.272350
  C      -1.069257      0.631701      1.863111
  C      -0.315686     -0.381063      2.516298
  N      -0.425073      1.745855      1.436587
  C       0.909796      1.774752      1.338170
  C       1.686869      0.716168      1.753132
  C       1.076122     -0.333755      2.420862
  C      -1.711873      1.067234     -1.104329
  O      -1.069516      0.142305     -0.658477
  N      -1.621293      1.539428     -2.348465
  C      -2.489856      2.538525     -2.925089
  C      -0.668615      0.941807     -3.259590
  H      -1.190839      0.477559     -4.097615
  H      -0.098787      0.183442     -2.728593
  H       0.006441      1.708219     -3.642881
  H      -1.894250      3.367051     -3.311437
  H      -3.186119      2.911233     -2.181159
  H      -3.049436      2.099231     -3.754379
  H      -5.040027     -1.198657      3.219737
  H      -5.158326      1.517384     -0.074876
  H      -6.336604      0.189862      1.644530
  H      -2.882891     -2.041892      3.999707
  H      -0.428156     -2.116157      3.789599
  H       1.327012      2.689879      0.946082
  H       2.755537      0.747701      1.618489
  H       1.667356     -1.114364      2.875702
  P      -1.202146      3.339713      1.460795
  O      -2.589008      3.392049      1.890808
  O      -0.757820      3.838959      0.037510
  O      -0.185877      4.071485      2.442623
  C      -1.465940      4.956461     -0.526828
  C      -0.559367      4.287827      3.806453
  C      -1.244731      6.228945      0.265434
  H      -2.531079      4.711806     -0.559919
  H      -1.071347      5.046799     -1.540843
  H      -1.682839      6.128121      1.256930
  H      -1.719964      7.062305     -0.245068
  H      -0.182149      6.435490      0.367184
  C      -0.446247      3.014387      4.623704
  H      -1.585702      4.662500      3.838454
  H       0.127046      5.055472      4.168626
  H       0.554631      2.594710      4.544225
  H      -1.173324      2.282224      4.273636
  H      -0.651305      3.234622      5.667399
52
Coordinates from ORCA-job HBQ-DCP_ES-GOAT E -83.642990515760
  C      -4.595975      0.921745      0.668844
  C      -5.253272      0.157725      1.629648
  C      -4.533001     -0.579020      2.540879
  C      -3.221599      1.036825      0.691244
  C      -2.475280      0.431486      1.723389
  O      -2.622550      1.702753     -0.363102
  C      -3.136792     -0.487289      2.581222
  C      -2.356603     -1.347885      3.409740
  C      -1.005490     -1.356718      3.336538
  C      -1.072879      0.622026      1.896326
  C      -0.314662     -0.366456      2.578597
  N      -0.439209      1.742422      1.466300
  C       0.897527      1.792829      1.394502
  C       1.683827      0.754292      1.840980
  C       1.078297     -0.294661      2.512856
  C      -1.784232      0.977267     -1.196284
  O      -1.230499     -0.045595     -0.839843
  N      -1.651144      1.543518     -2.392582
  C      -2.425462      2.662419     -2.876640
  C      -0.749248      0.951902     -3.357658
  H      -1.306867      0.611789     -4.230931
  H      -0.244812      0.103501     -2.901472
  H      -0.013304      1.691436     -3.672640
  H      -1.756323      3.467514     -3.179343
  H      -3.098111      3.020976     -2.105943
  H      -3.007370      2.349657     -3.745789
  H      -5.034112     -1.248992      3.221054
  H      -5.148591      1.412114     -0.116423
  H      -6.329676      0.099327      1.611734
  H      -2.878632     -2.045524      4.045457
  H      -0.419178     -2.080563      3.878747
  H       1.307524      2.711174      1.002670
  H       2.753992      0.805567      1.732336
  H       1.672548     -1.054062      2.997238
  P      -1.232805      3.325541      1.460415
  O      -2.621367      3.376573      1.895448
  O      -0.803236      3.804772      0.026653
  O      -0.223670      4.091746      2.421729
  C      -1.480141      4.945667     -0.533128
  C      -0.574016      4.306910      3.792775
  C      -1.171403      6.216927      0.231305
  H      -2.555688      4.752864     -0.525302
  H      -1.116661      5.002648     -1.560060
  H      -1.579525      6.152039      1.239009
  H      -1.622997      7.064385     -0.276274
  H      -0.097298      6.372517      0.294764
  C      -0.406116      3.042872      4.614521
  H      -1.609339      4.654539      3.845519
  H       0.098483      5.095559      4.133906
  H       0.602758      2.650875      4.511047
  H      -1.121646      2.289592      4.287553
  H      -0.590485      3.265534      5.661315
52
Coordinates from ORCA-job HBQ-DCP_ES-GOAT E -83.643495341790
  C      -4.617075      0.903286      0.738197
  C      -5.252246      0.132327      1.708886
  C      -4.510991     -0.592271      2.611963
  C      -3.244591      1.036037      0.743145
  C      -2.473767      0.428224      1.754319
  O      -2.667041      1.728743     -0.307847
  C      -3.114627     -0.489770      2.628580
  C      -2.316361     -1.338808      3.451033
  C      -0.967032     -1.342413      3.353963
  C      -1.066423      0.614907      1.886268
  C      -0.294054     -0.361903      2.568391
  N      -0.440421      1.721265      1.410119
  C       0.895473      1.769744      1.312483
  C       1.690403      0.742791      1.770568
  C       1.098098     -0.290586      2.476091
  C      -1.792066      1.037134     -1.127296
  O      -1.195750      0.041104     -0.751252
  N      -1.671016      1.595436     -2.326023
  C      -2.490789      2.671210     -2.833423
  C      -0.727152      1.042649     -3.274032
  H      -1.255481      0.668862     -4.151319
  H      -0.185154      0.224447     -2.805642
  H      -0.027062      1.817219     -3.584558
  H      -1.854988      3.501303     -3.136851
  H      -3.190066      3.006462     -2.076195
  H      -3.044056      2.319701     -3.705833
  H      -4.994763     -1.263756      3.302552
  H      -5.186256      1.390424     -0.037067
  H      -6.327938      0.063869      1.707448
  H      -2.824477     -2.029908      4.104246
  H      -0.367880     -2.056508      3.894274
  H       1.298231      2.677918      0.890814
  H       2.758171      0.792921      1.642757
  H       1.700816     -1.038067      2.967845
  P      -1.232744      3.301841      1.371702
  O      -2.646293      3.348291      1.728119
  O      -0.727907      3.796986     -0.030792
  O      -0.284811      4.065939      2.393831
  C      -1.347991      4.964996     -0.603238
  C      -0.697676      4.252482      3.752329
  C      -1.049854      6.213463      0.202220
  H      -2.426703      4.799109     -0.656868
  H      -0.928206      5.032796     -1.606748
  H      -1.514245      6.141716      1.184967
  H      -1.450951      7.081197     -0.312770
  H       0.022610      6.338999      0.327871
  C      -0.544591      2.977911      4.560222
  H      -1.739447      4.585009      3.765896
  H      -0.052754      5.045259      4.133909
  H       0.472820      2.602430      4.490128
  H      -1.235887      2.220636      4.193597
  H      -0.773351      3.182007      5.601871
52
Coordinates from ORCA-job HBQ-DCP_ES-GOAT E -83.643891162510
  C      -4.655906      0.910734      0.691690
  C      -5.299565      0.133868      1.653310
  C      -4.565650     -0.586775      2.565632
  C      -3.285797      1.058190      0.721748
  C      -2.525110      0.450218      1.738397
  O      -2.688437      1.750081     -0.319693
  C      -3.169647     -0.477937      2.598260
  C      -2.374555     -1.334974      3.415712
  C      -1.024923     -1.343783      3.316056
  C      -1.118460      0.629314      1.871192
  C      -0.349501     -0.361380      2.534982
  N      -0.488303      1.734766      1.399460
  C       0.846890      1.769135      1.283599
  C       1.636671      0.729164      1.722613
  C       1.042783     -0.302956      2.428612
  C      -1.757704      1.062525     -1.072418
  O      -1.151347      0.100738     -0.625826
  N      -1.601808      1.573280     -2.287472
  C      -2.421050      2.612873     -2.867810
  C      -0.609880      1.006908     -3.177141
  H      -1.095779      0.588355     -4.058819
  H      -0.068516      0.219732     -2.657925
  H       0.084309      1.786176     -3.489869
  H      -1.786261      3.433947     -3.195769
  H      -3.142031      2.977873     -2.143485
  H      -2.947819      2.210982     -3.735045
  H      -5.053490     -1.265958      3.245991
  H      -5.216534      1.392570     -0.093113
  H      -6.374582      0.056228      1.634886
  H      -2.885638     -2.032032      4.060275
  H      -0.427609     -2.067187      3.846216
  H       1.254734      2.678824      0.870210
  H       2.703568      0.770350      1.582868
  H       1.642990     -1.060931      2.907590
  P      -1.252594      3.328815      1.417774
  O      -2.639238      3.408113      1.868897
  O      -0.832556      3.816032     -0.013946
  O      -0.227343      4.074760      2.375830
  C      -1.489702      4.974193     -0.565958
  C      -0.541539      4.269192      3.759604
  C      -1.190054      6.230286      0.227612
  H      -2.566927      4.786600     -0.589361
  H      -1.100778      5.048417     -1.581062
  H      -1.624988      6.155082      1.223044
  H      -1.620348      7.089110     -0.278876
  H      -0.116877      6.374290      0.322881
  C      -0.357765      2.993078      4.558741
  H      -1.572996      4.622977      3.843528
  H       0.143599      5.049918      4.093311
  H       0.644505      2.597064      4.417476
  H      -1.089140      2.249630      4.245247
  H      -0.507611      3.204585      5.613194
52
Coordinates from ORCA-job HBQ-DCP_ES-GOAT E -83.643874491600
  C      -4.615168      0.932905      0.670051
  C      -5.263172      0.170899      1.640640
  C      -4.533005     -0.548981      2.556473
  C      -3.243786      1.066921      0.693877
  C      -2.486635      0.469779      1.721123
  O      -2.646237      1.723005     -0.371484
  C      -3.136367     -0.448350      2.587743
  C      -2.346153     -1.303571      3.412256
  C      -0.995934     -1.315267      3.317933
  C      -1.081513      0.653330      1.867145
  C      -0.315911     -0.333507      2.539847
  N      -0.452855      1.767003      1.414354
  C       0.883348      1.810814      1.315814
  C       1.673595      0.771084      1.755309
  C       1.077291     -0.268416      2.448948
  C      -1.780589      0.986736     -1.155922
  O      -1.223189     -0.016173     -0.738382
  N      -1.641985      1.487590     -2.376979
  C      -2.415119      2.580212     -2.922949
  C      -0.727254      0.859370     -3.307078
  H      -1.276048      0.475587     -4.167616
  H      -0.218229      0.037096     -2.810339
  H       0.003542      1.592294     -3.648480
  H      -1.741419      3.354451     -3.286440
  H      -3.072019      2.996549     -2.165450
  H      -3.010640      2.213363     -3.761060
  H      -5.024682     -1.218968      3.243585
  H      -5.173004      1.406346     -0.121891
  H      -6.338876      0.100597      1.623700
  H      -2.861487     -1.995540      4.059278
  H      -0.401484     -2.035819      3.855695
  H       1.290997      2.725896      0.914229
  H       2.742041      0.819092      1.627691
  H       1.675701     -1.024782      2.933154
  P      -1.229942      3.353542      1.446226
  O      -2.627746      3.412734      1.867045
  O      -0.781222      3.872611      0.035224
  O      -0.236286      4.090819      2.443026
  C      -1.440859      5.029273     -0.516538
  C      -0.585190      4.259680      3.821522
  C      -1.201447      6.274020      0.314295
  H      -2.511766      4.817813     -0.587996
  H      -1.013194      5.134626     -1.513506
  H      -1.674328      6.168798      1.289272
  H      -1.630047      7.134030     -0.192062
  H      -0.136431      6.438845      0.456171
  C      -0.412430      2.971967      4.604503
  H      -1.620745      4.605468      3.884875
  H       0.086091      5.039726      4.184420
  H       0.595847      2.584465      4.481098
  H      -1.131502      2.228992      4.262236
  H      -0.588869      3.166108      5.658262
52
Coordinates from ORCA-job HBQ-DCP_ES-GOAT E -83.644271341230
  C      -4.629269      0.916341      0.689174
  C      -5.274764      0.147079      1.655477
  C      -4.542800     -0.574757      2.568223
  C      -3.258109      1.052631      0.712270
  C      -2.498216      0.448393      1.733829
  O      -2.664979      1.727726     -0.344266
  C      -3.146382     -0.471775      2.599585
  C      -2.355152     -1.325772      3.424512
  C      -1.004919     -1.334530      3.332403
  C      -1.092137      0.629898      1.875684
  C      -0.325663     -0.353584      2.552545
  N      -0.464221      1.739467      1.412281
  C       0.872104      1.784881      1.315319
  C       1.663068      0.749781      1.763710
  C       1.067402     -0.286870      2.462298
  C      -1.781126      1.017138     -1.134618
  O      -1.195506      0.026792     -0.725851
  N      -1.633477      1.545197     -2.343039
  C      -2.430013      2.622205     -2.885930
  C      -0.678727      0.964868     -3.263709
  H      -1.196093      0.580643     -4.143162
  H      -0.154623      0.149609     -2.770896
  H       0.035458      1.726929     -3.574843
  H      -1.774848      3.428454     -3.213178
  H      -3.122020      2.995171     -2.139623
  H      -2.989203      2.254077     -3.747910
  H      -5.033057     -1.246802      3.254242
  H      -5.189155      1.395734     -0.097680
  H      -6.350355      0.075849      1.639629
  H      -2.869861     -2.017491      4.072222
  H      -0.409843     -2.052990      3.872096
  H       1.278830      2.696230      0.904373
  H       2.731326      0.797599      1.635317
  H       1.666238     -1.040175      2.950420
  P      -1.248511      3.321395      1.423024
  O      -2.643747      3.376278      1.852942
  O      -0.817256      3.819041     -0.000780
  O      -0.250888      4.081046      2.398526
  C      -1.461947      4.985854     -0.548876
  C      -0.587866      4.270115      3.777197
  C      -1.160216      6.232860      0.257010
  H      -2.539424      4.807291     -0.580887
  H      -1.063855      5.065315     -1.560994
  H      -1.604570      6.153584      1.248061
  H      -1.579672      7.098629     -0.247073
  H      -0.086755      6.367940      0.362592
  C      -0.400686      2.995827      4.578436
  H      -1.624678      4.611317      3.844555
  H       0.082430      5.059401      4.121287
  H       0.607962      2.611068      4.450331
  H      -1.119768      2.244213      4.255805
  H      -0.566774      3.205942      5.630787
52
Coordinates from ORCA-job HBQ-DCP_ES-GOAT E -83.644286005590
  C      -4.640611      0.908962      0.699134
  C      -5.280805      0.137773      1.667578
  C      -4.543779     -0.578853      2.580086
  C      -3.270264      1.052275      0.720621
  C      -2.504929      0.450525      1.738715
  O      -2.681134      1.734628     -0.333183
  C      -3.147533     -0.470882      2.607291
  C      -2.351540     -1.322291      3.429946
  C      -1.002006     -1.329843      3.330956
  C      -1.097692      0.632122      1.870699
  C      -0.327651     -0.350940      2.544438
  N      -0.470305      1.738538      1.396802
  C       0.865553      1.780077      1.290310
  C       1.657477      0.745583      1.737863
  C       1.064858     -0.286947      2.444474
  C      -1.772433      1.039619     -1.107322
  O      -1.166606      0.067839     -0.681896
  N      -1.632315      1.553828     -2.322352
  C      -2.455939      2.600222     -2.884893
  C      -0.656480      0.988076     -3.229832
  H      -1.157881      0.578737     -4.107098
  H      -0.113091      0.193851     -2.723636
  H       0.038115      1.765573     -3.546360
  H      -1.821456      3.418007     -3.223203
  H      -3.160368      2.966013     -2.146531
  H      -3.002109      2.203185     -3.742305
  H      -5.029459     -1.251866      3.268274
  H      -5.204173      1.386281     -0.086306
  H      -6.356041      0.061806      1.653777
  H      -2.862525     -2.013822      4.080616
  H      -0.403523     -2.047143      3.868213
  H       1.271361      2.688327      0.871759
  H       2.724781      0.790872      1.601686
  H       1.665331     -1.039710      2.931199
  P      -1.247866      3.322868      1.407033
  O      -2.646397      3.382081      1.827633
  O      -0.805500      3.824311     -0.011590
  O      -0.255134      4.075046      2.392690
  C      -1.435074      4.999478     -0.560017
  C      -0.598559      4.258515      3.770618
  C      -1.136310      6.239599      0.257783
  H      -2.513262      4.828775     -0.607668
  H      -1.022677      5.082709     -1.565862
  H      -1.596738      6.158641      1.241303
  H      -1.541137      7.111264     -0.248011
  H      -0.063649      6.365758      0.380958
  C      -0.421055      2.979413      4.566211
  H      -1.634249      4.604157      3.834087
  H       0.073318      5.043111      4.122065
  H       0.585890      2.590128      4.439604
  H      -1.143004      2.233282      4.237567
  H      -0.589736      3.185501      5.618922
52
Coordinates from ORCA-job HBQ-DCP_ES-GOAT E -83.644333946220
  C      -4.636808      0.905558      0.692472
  C      -5.279051      0.134224      1.659483
  C      -4.543896     -0.582950      2.573146
  C      -3.266380      1.047613      0.715969
  C      -2.503225      0.446663      1.736434
  O      -2.675962      1.728528     -0.337981
  C      -3.147734     -0.474740      2.603603
  C      -2.353542     -1.325495      3.428840
  C      -1.003607     -1.331754      3.334076
  C      -1.096943      0.630593      1.874260
  C      -0.327830     -0.351661      2.550171
  N      -0.469733      1.738566      1.404193
  C       0.866266      1.781884      1.301299
  C       1.658296      0.747966      1.750170
  C       1.064929     -0.285913      2.454396
  C      -1.776382      1.029633     -1.118975
  O      -1.181613      0.047244     -0.703526
  N      -1.633291      1.551992     -2.330418
  C      -2.445999      2.613149     -2.881388
  C      -0.666771      0.982250     -3.245386
  H      -1.175314      0.587185     -4.125174
  H      -0.132552      0.176634     -2.747617
  H       0.037080      1.753793     -3.556475
  H      -1.802767      3.426326     -3.214571
  H      -3.143789      2.981001     -2.137256
  H      -2.999626      2.230213     -3.740584
  H      -5.031061     -1.255856      3.260534
  H      -5.198748      1.382977     -0.094088
  H      -6.354341      0.058478      1.643459
  H      -2.866027     -2.017478      4.077988
  H      -0.405993     -2.048566      3.873156
  H       1.272009      2.690871      0.884269
  H       2.726005      0.794654      1.616742
  H       1.664892     -1.038575      2.942129
  P      -1.249565      3.321628      1.415063
  O      -2.646007      3.380214      1.842828
  O      -0.815062      3.818966     -0.007247
  O      -0.253276      4.077771      2.393991
  C      -1.445351      4.993332     -0.556347
  C      -0.591014      4.266586      3.772534
  C      -1.140832      6.236658      0.254556
  H      -2.524162      4.823703     -0.598087
  H      -1.037938      5.071810     -1.564679
  H      -1.597436      6.161339      1.240167
  H      -1.546081      7.106745     -0.253781
  H      -0.067458      6.361434      0.372815
  C      -0.411787      2.990400      4.572497
  H      -1.626115      4.613447      3.838476
  H       0.082955      5.051968      4.118384
  H       0.594134      2.599101      4.442969
  H      -1.136355      2.243941      4.250218
  H      -0.575451      3.201011      5.625142
52
Coordinates from ORCA-job HBQ-DCP_ES-GOAT E -83.644338915150
  C      -4.638561      0.903943      0.694413
  C      -5.279699      0.133212      1.662687
  C      -4.543473     -0.583116      2.576132
  C      -3.268118      1.045975      0.716318
  C      -2.503732      0.446119      1.736582
  O      -2.679287      1.725149     -0.339613
  C      -3.147297     -0.474605      2.605185
  C      -2.352332     -1.324440      3.430677
  C      -1.002439     -1.330299      3.335027
  C      -1.097505      0.630647      1.873393
  C      -0.327585     -0.350654      2.549724
  N      -0.471149      1.738685      1.402438
  C       0.864767      1.782539      1.298736
  C       1.657576      0.749235      1.747619
  C       1.065130     -0.284490      2.452863
  C      -1.779894      1.026273     -1.120538
  O      -1.183656      0.044911     -0.704845
  N      -1.634058      1.550861     -2.330848
  C      -2.446765      2.612046     -2.882015
  C      -0.663628      0.984749     -3.243846
  H      -1.168571      0.592061     -4.126743
  H      -0.130846      0.177921     -2.746493
  H       0.040892      1.757767     -3.549786
  H      -1.803813      3.426599     -3.212263
  H      -3.146855      2.977572     -2.138964
  H      -2.997834      2.229819     -3.743153
  H      -5.029767     -1.255443      3.264711
  H      -5.201334      1.380410     -0.092110
  H      -6.354982      0.057168      1.647572
  H      -2.864281     -2.015819      4.080902
  H      -0.404130     -2.046223      3.874525
  H       1.269781      2.691325      0.880549
  H       2.725175      0.796433      1.613405
  H       1.665650     -1.036610      2.940754
  P      -1.251895      3.320841      1.413991
  O      -2.648363      3.378186      1.842492
  O      -0.818605      3.817973     -0.008475
  O      -0.256359      4.077584      2.392990
  C      -1.443484      4.995509     -0.556775
  C      -0.593252      4.265471      3.771813
  C      -1.135654      6.236923      0.255716
  H      -2.522877      4.830013     -0.600186
  H      -1.034274      5.073412     -1.564464
  H      -1.595261      6.163325      1.240051
  H      -1.535743      7.108912     -0.253452
  H      -0.062076      6.357086      0.376854
  C      -0.414092      2.988657      4.570739
  H      -1.628222      4.612623      3.838361
  H       0.081136      5.050411      4.117843
  H       0.591340      2.596614      4.439657
  H      -1.139732      2.243009      4.248989
  H      -0.576278      3.198790      5.623711
52
Coordinates from ORCA-job HBQ-DCP_ES-GOAT E -83.644344823520
  C      -4.640523      0.904027      0.698326
  C      -5.280382      0.133053      1.667394
  C      -4.542847     -0.583525      2.579589
  C      -3.269966      1.045127      0.718095
  C      -2.503924      0.445068      1.736972
  O      -2.683089      1.722948     -0.339455
  C      -3.146590     -0.475206      2.606745
  C      -2.351032     -1.324766      3.432066
  C      -1.001157     -1.330334      3.335503
  C      -1.097790      0.629626      1.872367
  C      -0.327197     -0.351095      2.548827
  N      -0.471991      1.737557      1.400292
  C       0.863786      1.781152      1.295099
  C       1.657138      0.748177      1.743671
  C       1.065477     -0.285237      2.450106
  C      -1.780985      1.026742     -1.118493
  O      -1.185840      0.044474     -0.704189
  N      -1.632688      1.553763     -2.327985
  C      -2.446198      2.615219     -2.878063
  C      -0.658770      0.991806     -3.239638
  H      -1.160115      0.604852     -4.127115
  H      -0.129769      0.181310     -2.744238
  H       0.048397      1.765633     -3.537564
  H      -1.803897      3.430202     -3.208351
  H      -3.145844      2.979788     -2.133993
  H      -2.997973      2.233304     -3.738966
  H      -5.028082     -1.255546      3.269289
  H      -5.204321      1.380746     -0.087273
  H      -6.355718      0.057117      1.653388
  H      -2.862722     -2.015667      4.083052
  H      -0.402107     -2.045587      3.875140
  H       1.268187      2.689073      0.874442
  H       2.724573      0.795370      1.607699
  H       1.666289     -1.037520      2.937465
  P      -1.253460      3.318284      1.413148
  O      -2.649517      3.374140      1.844593
  O      -0.823831      3.812515     -0.010645
  O      -0.258417      4.076395      2.390988
  C      -1.439781      4.992860     -0.562444
  C      -0.593217      4.265621      3.769985
  C      -1.137390      6.233396      0.253302
  H      -2.519223      4.829967     -0.616466
  H      -1.020589      5.070238     -1.566176
  H      -1.610231      6.163240      1.231502
  H      -1.527261      7.106253     -0.262390
  H      -0.065038      6.349753      0.388208
  C      -0.418119      2.988427      4.569127
  H      -1.626950      4.616411      3.836841
  H       0.084192      5.048353      4.115168
  H       0.585094      2.591447      4.435531
  H      -1.148345      2.246110      4.249966
  H      -0.576555      3.200000      5.622409
52
Coordinates from ORCA-job HBQ-DCP_ES-GOAT E -83.644347122730
  C      -4.641187      0.900684      0.698718
  C      -5.280234      0.129875      1.668419
  C      -4.541924     -0.586338      2.580187
  C      -3.270623      1.042314      0.717547
  C      -2.503719      0.442903      1.736280
  O      -2.685151      1.720939     -0.340332
  C      -3.145705     -0.477454      2.606558
  C      -2.349577     -1.326478      3.431822
  C      -0.999782     -1.331482      3.334898
  C      -1.097600      0.628311      1.871530
  C      -0.326469     -0.351989      2.548077
  N      -0.472164      1.736557      1.399241
  C       0.863679      1.780573      1.294200
  C       1.657411      0.748000      1.742889
  C       1.066148     -0.285473      2.449489
  C      -1.781261      1.027183     -1.119286
  O      -1.184540      0.045357     -0.705834
  N      -1.634799      1.554184     -2.329025
  C      -2.451250      2.613212     -2.879301
  C      -0.660204      0.993936     -3.240925
  H      -1.161001      0.607655     -4.128968
  H      -0.130813      0.183231     -2.746219
  H       0.046550      1.768495     -3.537768
  H      -1.811060      3.428991     -3.211609
  H      -3.150544      2.977299     -2.134862
  H      -3.003462      2.229051     -3.738898
  H      -5.026452     -1.258522      3.270173
  H      -5.205656      1.377296     -0.086444
  H      -6.355545      0.053788      1.655159
  H      -2.860825     -2.017399      4.083066
  H      -0.400266     -2.046276      3.874542
  H       1.267777      2.688729      0.873759
  H       2.724809      0.795782      1.607191
  H       1.667196     -1.037340      2.937129
  P      -1.254029      3.317009      1.412407
  O      -2.650088      3.372393      1.844201
  O      -0.825034      3.810565     -0.011542
  O      -0.259343      4.076108      2.389719
  C      -1.434398      4.994836     -0.562101
  C      -0.595164      4.269523      3.767961
  C      -1.129580      6.231743      0.258092
  H      -2.514241      4.836537     -0.619822
  H      -1.011770      5.073229     -1.564311
  H      -1.605870      6.160906      1.234641
  H      -1.514199      7.107528     -0.256575
  H      -0.057188      6.343495      0.396652
  C      -0.423631      2.994310      4.571016
  H      -1.628163      4.622827      3.832937
  H       0.083630      5.051662      4.111641
  H       0.578475      2.594197      4.438772
  H      -1.155879      2.253065      4.254142
  H      -0.581593      3.209536      5.623617
52
Coordinates from ORCA-job HBQ-DCP_ES-GOAT E -83.644348170460
  C      -4.641849      0.900077      0.698466
  C      -5.280938      0.129845      1.668524
  C      -4.542651     -0.585966      2.580621
  C      -3.271286      1.041975      0.717274
  C      -2.504462      0.443196      1.736435
  O      -2.685890      1.720780     -0.340504
  C      -3.146451     -0.476995      2.606934
  C      -2.350271     -1.325806      3.432301
  C      -1.000516     -1.330897      3.335291
  C      -1.098282      0.628795      1.871773
  C      -0.327189     -0.351489      2.548447
  N      -0.472618      1.736926      1.399262
  C       0.863271      1.780780      1.294453
  C       1.656854      0.748232      1.743424
  C       1.065398     -0.285000      2.450163
  C      -1.781436      1.027304     -1.119128
  O      -1.184240      0.045878     -0.705196
  N      -1.634532      1.554524     -2.328617
  C      -2.450622      2.613467     -2.879336
  C      -0.659663      0.994061     -3.240147
  H      -1.160152      0.608394     -4.128624
  H      -0.130900      0.182915     -2.745480
  H       0.047684      1.768281     -3.536436
  H      -1.810140      3.429108     -3.211547
  H      -3.150149      2.977898     -2.135290
  H      -3.002563      2.229284     -3.739105
  H      -5.027181     -1.258069      3.270664
  H      -5.206313      1.376422     -0.086874
  H      -6.356252      0.053858      1.655446
  H      -2.861426     -2.016754      4.083573
  H      -0.401043     -2.045770      3.874871
  H       1.267562      2.689073      0.874506
  H       2.724283      0.795927      1.608069
  H       1.666368     -1.036735      2.938094
  P      -1.253902      3.317957      1.411986
  O      -2.649988      3.373901      1.843239
  O      -0.823918      3.811244     -0.011858
  O      -0.258801      4.076407      2.389468
  C      -1.433829      4.994922     -0.563295
  C      -0.594322      4.268289      3.768000
  C      -1.132025      6.231921      0.257929
  H      -2.513335      4.835337     -0.623080
  H      -1.009563      5.074256     -1.564711
  H      -1.609142      6.159483      1.233968
  H      -1.517673      7.107436     -0.256453
  H      -0.059961      6.345470      0.397618
  C      -0.420404      2.992616      4.569809
  H      -1.627804      4.619965      3.833966
  H       0.083542      5.051088      4.112014
  H       0.582427      2.594470      4.437203
  H      -1.151237      2.250327      4.252115
  H      -0.578780      3.206451      5.622626
52
Coordinates from ORCA-job HBQ-DCP_ES-GOAT E -83.644348853800
  C      -4.641969      0.901048      0.698935
  C      -5.281211      0.130980      1.668955
  C      -4.543018     -0.585442      2.580686
  C      -3.271314      1.042393      0.717321
  C      -2.504583      0.443108      1.736235
  O      -2.686088      1.721004     -0.340575
  C      -3.146780     -0.477098      2.606605
  C      -2.350730     -1.326495      3.431479
  C      -1.000987     -1.331960      3.334344
  C      -1.098345      0.628317      1.871587
  C      -0.327454     -0.352335      2.547965
  N      -0.472445      1.736520      1.399605
  C       0.863463      1.780300      1.295149
  C       1.656886      0.747517      1.743876
  C       1.065137     -0.285939      2.450059
  C      -1.781348      1.027675     -1.118991
  O      -1.184037      0.046375     -0.704895
  N      -1.634132      1.555182     -2.328291
  C      -2.449960      2.614126     -2.879177
  C      -0.659308      0.994390     -3.239726
  H      -1.159697      0.610505     -4.129031
  H      -0.132015      0.181941     -2.745638
  H       0.049425      1.767859     -3.534731
  H      -1.809219      3.429419     -3.211857
  H      -3.149187      2.979197     -2.135124
  H      -3.002317      2.229916     -3.738695
  H      -5.027683     -1.257602      3.270582
  H      -5.206376      1.377771     -0.086233
  H      -6.356577      0.055618      1.656283
  H      -2.861969     -2.017651      4.082482
  H      -0.401692     -2.047323      3.873491
  H       1.267944      2.688857      0.875963
  H       2.724358      0.795120      1.608808
  H       1.665962     -1.037897      2.937845
  P      -1.253706      3.317838      1.412219
  O      -2.649585      3.373554      1.843768
  O      -0.823836      3.810283     -0.011979
  O      -0.258010      4.076398      2.389076
  C      -1.433487      4.993636     -0.564560
  C      -0.593435      4.269085      3.767520
  C      -1.135582      6.230603      0.258168
  H      -2.512616      4.832900     -0.627675
  H      -1.006423      5.074017     -1.564706
  H      -1.614673      6.156479      1.233111
  H      -1.521654      7.105901     -0.256298
  H      -0.064014      6.345951      0.400234
  C      -0.418333      2.994139      4.570256
  H      -1.627151      4.620004      3.833625
  H       0.083980      5.052605      4.110820
  H       0.584856      2.596775      4.437976
  H      -1.148476      2.250949      4.253074
  H      -0.576898      3.208546      5.622929
52
Coordinates from ORCA-job HBQ-DCP_ES-GOAT E -83.644348871350
  C      -4.642379      0.900744      0.699173
  C      -5.281566      0.130760      1.669261
  C      -4.543274     -0.585647      2.580954
  C      -3.271696      1.042066      0.717319
  C      -2.504910      0.442877      1.736237
  O      -2.686789      1.720500     -0.340823
  C      -3.147041     -0.477298      2.606701
  C      -2.350907     -1.326665      3.431534
  C      -1.001156     -1.332042      3.334404
  C      -1.098696      0.628205      1.871624
  C      -0.327711     -0.352317      2.548050
  N      -0.472937      1.736473      1.399730
  C       0.862960      1.780511      1.295451
  C       1.656552      0.747865      1.744216
  C       1.064886     -0.285722      2.450284
  C      -1.781580      1.027587     -1.119050
  O      -1.184291      0.046205     -0.705044
  N      -1.634113      1.555428     -2.328159
  C      -2.450167      2.614070     -2.879228
  C      -0.658922      0.994974     -3.239428
  H      -1.158898      0.612686     -4.129647
  H      -0.132704      0.181476     -2.745932
  H       0.050747      1.768177     -3.532907
  H      -1.809582      3.429497     -3.211860
  H      -3.149607      2.979019     -2.135330
  H      -3.002356      2.229710     -3.738789
  H      -5.027873     -1.257780      3.270919
  H      -5.206810      1.377371     -0.086045
  H      -6.356936      0.055453      1.656764
  H      -2.862070     -2.017861      4.082561
  H      -0.401814     -2.047383      3.873522
  H       1.267334      2.689191      0.876437
  H       2.724027      0.795625      1.609247
  H       1.665799     -1.037570      2.938128
  P      -1.254530      3.317772      1.412016
  O      -2.650313      3.372961      1.843791
  O      -0.824850      3.809596     -0.012444
  O      -0.258700      4.076706      2.388442
  C      -1.432706      4.993797     -0.565213
  C      -0.593801      4.269182      3.766978
  C      -1.135282      6.230058      0.258726
  H      -2.511839      4.833967     -0.630218
  H      -1.003922      5.074442     -1.564617
  H      -1.615487      6.155260      1.233088
  H      -1.520545      7.105881     -0.255435
  H      -0.063834      6.344993      0.402062
  C      -0.416702      2.994485      4.569684
  H      -1.627936      4.618757      3.833550
  H       0.082778      5.053582      4.109938
  H       0.586996      2.598507      4.437147
  H      -1.145873      2.250258      4.252684
  H      -0.575283      3.208670      5.622399
