34
Coordinates from ORCA-job 3 E -878.190133078000
  C          -3.17815589092110     -0.43903784933428     -0.54562032173410
  C          -2.72802941852858     -1.49697199128627     -1.34098928928559
  C          -1.36354783131107     -1.73621761194380     -1.44750400886470
  C          -2.25977110406866      0.38937401173143      0.12234626701539
  C          -0.84222901391386      0.23733966023118     -0.02055457211382
  O          -2.72069468341350      1.28033858084308      1.04113935513618
  C          -0.40689847111536     -0.91077671887812     -0.79464355633829
  C           0.96103632295460     -1.18748392214834     -0.91865965541127
  C           1.91037971573074     -0.36544881687693     -0.30904243813140
  C           0.13666529892899      1.16015179485435      0.49491747190313
  C           1.54067977503775      0.80897715110645      0.37747645037426
  N          -0.24714468814528      2.33165412389383      1.07138085932872
  C           0.70316246960002      3.11791725556222      1.62356463266401
  C           2.06314302062557      2.81993956522701      1.63398111851964
  C           2.50193436640145      1.66337504026397      0.98055829112613
  C          -3.79425370048822      2.12517153718235      0.76300549679432
  O          -4.22664627118399      2.27437808078386     -0.36221137192438
  N          -4.20940671106346      2.74646706596990      1.88270960584577
  C          -3.70364120286102      2.46823953220301      3.22611385726462
  C          -5.34400173458126      3.66159665544235      1.80017070376856
  H          -5.59272045954959      3.84178382202935      0.75886560290515
  H          -5.08578768231844      4.60732531910213      2.28163379394398
  H          -6.21290043853266      3.23480930759537      2.31020674952477
  H          -2.74603313750514      1.96211054738034      3.17690646168900
  H          -4.41343949351997      1.84750066113719      3.78162809818620
  H          -3.57943932560553      3.41417145161383      3.75671778165299
  H          -1.00236175330241     -2.56912435754264     -2.04146671560476
  H          -4.23631029823466     -0.28418740628261     -0.38660645421911
  H          -3.44138689882614     -2.14331522261662     -1.83795913235523
  H           1.27717678057718     -2.05293190118001     -1.49092979423878
  H           2.96330860085339     -0.62285015938099     -0.37142887614675
  H           0.34623885956041      4.05150728680766      2.05206037758940
  H           2.76391048022860      3.50604135349191      2.09742050430564
  H           3.55532451523202      1.41600615487622      0.90919270644118
