! B3LYP/G OPT Def2-TZVP(-f) Def2-TZVP/C Def2/J RIJCOSX TightSCF CPCM(Water) AllPop SOSCF
%maxcore 3000
%tddft
    NRoots 3
    IRoot 1
end

* xyz 1 1
   C       -6.61766       -1.50485        0.05143
   C       -6.64071       -2.71913       -0.85416
   C       -5.61981       -3.73441       -0.36295
   H       -6.41557       -2.41815       -1.87992
   H       -7.64539       -3.14076       -0.84450
   C       -4.26611       -3.10074       -0.22826
   H       -5.55492       -4.59502       -1.02817
   H       -5.92885       -4.11226        0.61848
   C       -4.15413       -1.68851        0.07640
   N       -5.26367       -0.94736        0.20927
   H       -6.98681       -1.75444        1.05182
   H       -7.24190       -0.70460       -0.34061
   C       -5.20857        0.45743        0.64611
   C       -3.96417        1.15202        0.13153
   H       -5.23819        0.46405        1.74048
   H       -6.11264        0.93997        0.28424
   C       -2.72565        0.38227        0.56632
   H       -3.94138        2.16816        0.52386
   H       -4.00866        1.21702       -0.95782
   C       -2.86524       -1.08053        0.25522
   H       -2.57367        0.49955        1.64515
   H       -1.83235        0.77578        0.08359
   C       -3.12380       -3.83450       -0.35744
   C       -1.76104       -1.89047        0.13516
   C       -1.84744       -3.26212       -0.17889
   O       -0.53924       -1.31160        0.32781
   C        0.64784       -2.00508        0.22068
   C       -0.64499       -4.00638       -0.30292
   C        0.56996       -3.42785       -0.12185
   O        1.66369       -1.37986        0.41275
   C        1.83767       -4.19173       -0.24401
   C        2.48593       -4.68290        0.92107
   C        2.35730       -4.42584       -1.48156
   N        3.53977       -5.13767       -1.61575
   C        4.20055       -5.63271       -0.49648
   C        3.68959       -5.41394        0.74250
   H        1.90347       -4.07511       -2.39447
   H        4.22002       -5.80841        1.59814
   H        5.10981       -6.17933       -0.68662
   H        2.07455       -4.50718        1.90136
   H       -3.18750       -4.88926       -0.59271
   H       -0.71043       -5.05918       -0.54824
   H        3.90651       -5.31875       -2.53313
*

