34
Coordinates from ORCA-job 1globalminimum E -878.321377273716
  C      -3.404186     -0.996310     -0.399451
  C      -2.860036     -1.893197     -1.315889
  C      -1.528870     -1.818244     -1.636566
  C      -2.604807     -0.059258      0.219268
  C      -1.220338      0.003218     -0.040136
  O      -3.225664      0.796311      1.116026
  C      -0.693924     -0.873949     -1.019460
  C       0.681359     -0.782628     -1.383625
  C       1.501310      0.131710     -0.818829
  C      -0.324846      0.911000      0.629308
  C       1.024332      0.995422      0.205456
  N      -0.778624      1.645875      1.655487
  C       0.024156      2.504047      2.236396
  C       1.352173      2.706355      1.855597
  C       1.856141      1.931046      0.840257
  C      -3.086693      2.133586      0.901788
  O      -2.709071      2.594093     -0.168668
  N      -3.525857      2.866347      1.927517
  C      -3.937882      2.317926      3.199862
  C      -3.499438      4.309348      1.852120
  H      -2.802188      4.709663      2.589292
  H      -4.496787      4.704104      2.046922
  H      -3.178637      4.602306      0.854957
  H      -4.959642      2.633074      3.414309
  H      -3.277732      2.686597      3.986085
  H      -3.889249      1.234912      3.168428
  H      -1.103162     -2.482559     -2.372366
  H      -4.457063     -1.011556     -0.165343
  H      -3.499053     -2.623688     -1.785609
  H       1.046338     -1.458581     -2.141685
  H       2.535642      0.218254     -1.116262
  H      -0.411142      3.058481      3.056754
  H       1.957372      3.441093      2.361026
  H       2.884217      2.023042      0.521416
34
Coordinates from ORCA-job 1globalminimum E -878.326268408169
  C      -3.419696     -0.996215     -0.437580
  C      -2.858507     -1.889572     -1.356878
  C      -1.519641     -1.805695     -1.664049
  C      -2.634181     -0.052210      0.193151
  C      -1.229194      0.014329     -0.035501
  O      -3.300173      0.786939      1.077098
  C      -0.690440     -0.861433     -1.024255
  C       0.696544     -0.773374     -1.376918
  C       1.523145      0.128143     -0.792058
  C      -0.312100      0.899751      0.668738
  C       1.046164      0.980206      0.251363
  N      -0.751034      1.616809      1.724175
  C       0.062426      2.459165      2.329976
  C       1.391240      2.664011      1.944492
  C       1.888207      1.901731      0.909315
  C      -3.303093      2.131654      0.806706
  O      -3.097570      2.571810     -0.316527
  N      -3.597843      2.879634      1.886027
  C      -3.771831      2.354887      3.233978
  C      -3.605818      4.327951      1.768681
  H      -2.785416      4.751979      2.360135
  H      -4.557222      4.728418      2.128623
  H      -3.468630      4.601215      0.726524
  H      -4.751477      2.649624      3.620397
  H      -2.998351      2.762144      3.892075
  H      -3.697730      1.273400      3.229815
  H      -1.081538     -2.467097     -2.403309
  H      -4.480987     -1.015306     -0.219393
  H      -3.491674     -2.623036     -1.842369
  H       1.066169     -1.444367     -2.144648
  H       2.564974      0.206959     -1.084621
  H      -0.363885      3.006287      3.167022
  H       1.996458      3.393933      2.464474
  H       2.920853      1.995168      0.589722
34
Coordinates from ORCA-job 1globalminimum E -878.327422565283
  C      -3.414671     -0.956243     -0.451979
  C      -2.862796     -1.876570     -1.355349
  C      -1.516808     -1.826289     -1.645712
  C      -2.617982     -0.018733      0.176716
  C      -1.207581      0.029317     -0.044658
  O      -3.286196      0.810739      1.070066
  C      -0.676396     -0.882797     -1.012217
  C       0.718521     -0.834277     -1.356110
  C       1.562521      0.062050     -0.786019
  C      -0.274532      0.926111      0.634594
  C       1.092325      0.960305      0.226008
  N      -0.711257      1.703360      1.652793
  C       0.123010      2.549652      2.236065
  C       1.465636      2.700561      1.859084
  C       1.951869      1.886055      0.857880
  C      -3.273011      2.167551      0.838349
  O      -2.986742      2.634296     -0.253638
  N      -3.652698      2.876486      1.923491
  C      -3.923381      2.299484      3.238103
  C      -3.642971      4.333145      1.861080
  H      -2.854452      4.725508      2.515961
  H      -4.608498      4.733531      2.183926
  H      -3.444787      4.650235      0.842214
  H      -4.927343      2.583468      3.568826
  H      -3.198785      2.676899      3.967364
  H      -3.852883      1.218568      3.201158
  H      -1.082205     -2.511018     -2.368542
  H      -4.478789     -0.955421     -0.238893
  H      -3.505829     -2.607403     -1.836503
  H       1.080850     -1.533847     -2.104286
  H       2.610269      0.104945     -1.072050
  H      -0.292103      3.146632      3.046523
  H       2.084985      3.438833      2.355702
  H       2.990861      1.942708      0.544432
34
Coordinates from ORCA-job 1globalminimum E -878.328108232798
  C      -3.404754     -0.924747     -0.450874
  C      -2.866510     -1.848124     -1.359081
  C      -1.520349     -1.812969     -1.648842
  C      -2.596742      0.002992      0.177188
  C      -1.192259      0.042507     -0.052213
  O      -3.246795      0.825229      1.089039
  C      -0.671349     -0.877855     -1.015597
  C       0.724793     -0.849807     -1.353881
  C       1.579012      0.032191     -0.778064
  C      -0.256109      0.933802      0.621565
  C       1.113845      0.941318      0.226170
  N      -0.697361      1.727156      1.624288
  C       0.147904      2.558884      2.212510
  C       1.500437      2.677469      1.855421
  C       1.982607      1.851946      0.862918
  C      -3.266620      2.181315      0.848274
  O      -3.014189      2.645554     -0.250670
  N      -3.676931      2.877603      1.928601
  C      -3.915454      2.295874      3.244995
  C      -3.725151      4.332810      1.859384
  H      -2.941710      4.760549      2.494981
  H      -4.697245      4.696114      2.202507
  H      -3.563517      4.653438      0.834779
  H      -4.927090      2.540747      3.580889
  H      -3.203002      2.704766      3.968283
  H      -3.802890      1.218199      3.211143
  H      -1.092726     -2.502858     -2.368938
  H      -4.466367     -0.914519     -0.231985
  H      -3.517180     -2.570671     -1.839667
  H       1.080745     -1.555356     -2.097731
  H       2.628527      0.055013     -1.054972
  H      -0.262171      3.169528      3.013246
  H       2.129403      3.402809      2.358081
  H       3.025346      1.886933      0.562633
34
Coordinates from ORCA-job 1globalminimum E -878.328624664984
  C      -3.394019     -0.893961     -0.444994
  C      -2.871900     -1.813536     -1.365697
  C      -1.525714     -1.791824     -1.657342
  C      -2.572844      0.019791      0.186237
  C      -1.174457      0.057632     -0.058425
  O      -3.201830      0.830363      1.120750
  C      -0.666556     -0.868208     -1.022125
  C       0.730515     -0.863774     -1.354777
  C       1.597894     -0.001093     -0.769676
  C      -0.232433      0.948542      0.604014
  C       1.141003      0.920539      0.226335
  N      -0.675105      1.773910      1.580517
  C       0.183817      2.587307      2.173783
  C       1.548046      2.655642      1.848869
  C       2.023678      1.810852      0.870504
  C      -3.273546      2.183530      0.863820
  O      -3.016919      2.646581     -0.232525
  N      -3.713655      2.870491      1.937918
  C      -3.929685      2.292799      3.258583
  C      -3.808803      4.322098      1.856254
  H      -3.028068      4.784629      2.469243
  H      -4.783273      4.655625      2.220554
  H      -3.684920      4.638020      0.824597
  H      -4.945738      2.513322      3.596859
  H      -3.226607      2.725874      3.976867
  H      -3.789995      1.218295      3.232401
  H      -1.105998     -2.484470     -2.378269
  H      -4.452680     -0.877383     -0.215333
  H      -3.531425     -2.525106     -1.848907
  H       1.078136     -1.574564     -2.096607
  H       2.649510     -0.002582     -1.036244
  H      -0.220804      3.224238      2.955598
  H       2.190811      3.360183      2.362427
  H       3.071715      1.814078      0.589174
34
Coordinates from ORCA-job 1globalminimum E -878.328885660212
  C      -3.387764     -0.867598     -0.437297
  C      -2.880555     -1.778261     -1.374823
  C      -1.534398     -1.766905     -1.672209
  C      -2.552487      0.029531      0.199218
  C      -1.157315      0.063877     -0.059470
  O      -3.153165      0.833390      1.156536
  C      -0.662466     -0.859822     -1.030886
  C       0.735176     -0.873269     -1.360547
  C       1.614598     -0.029545     -0.763692
  C      -0.207072      0.951380      0.597784
  C       1.167978      0.897082      0.232237
  N      -0.644988      1.804996      1.553211
  C       0.222252      2.605181      2.149208
  C       1.592400      2.633993      1.850221
  C       2.062755      1.771435      0.883964
  C      -3.268716      2.180428      0.882271
  O      -3.031099      2.638895     -0.220245
  N      -3.738561      2.863917      1.946343
  C      -3.934486      2.300469      3.276506
  C      -3.893448      4.308171      1.840169
  H      -3.122357      4.815715      2.431662
  H      -4.874838      4.606435      2.217183
  H      -3.802409      4.609194      0.800828
  H      -4.955092      2.500256      3.615021
  H      -3.240581      2.761918      3.986507
  H      -3.768199      1.229659      3.265789
  H      -1.124170     -2.457627     -2.400921
  H      -4.444065     -0.847360     -0.195163
  H      -3.549724     -2.476987     -1.864176
  H       1.074569     -1.583104     -2.107598
  H       2.667769     -0.047947     -1.024711
  H      -0.180197      3.267691      2.911595
  H       2.244329      3.322101      2.373604
  H       3.114476      1.750552      0.616259
34
Coordinates from ORCA-job 1globalminimum E -878.329155309333
  C      -3.382078     -0.841609     -0.437941
  C      -2.882267     -1.752839     -1.378095
  C      -1.536442     -1.752386     -1.674203
  C      -2.540656      0.048978      0.199268
  C      -1.143989      0.076387     -0.061951
  O      -3.135400      0.849095      1.164206
  C      -0.656625     -0.854453     -1.031472
  C       0.741380     -0.887857     -1.356005
  C       1.630297     -0.058611     -0.754642
  C      -0.183894      0.959273      0.591123
  C       1.193123      0.877950      0.235354
  N      -0.610816      1.834601      1.532380
  C       0.267980      2.623003      2.127211
  C       1.641875      2.617425      1.843338
  C       2.101152      1.737805      0.888045
  C      -3.289965      2.190417      0.884230
  O      -3.068525      2.653951     -0.219930
  N      -3.770437      2.864068      1.950328
  C      -3.940598      2.297665      3.282691
  C      -3.972260      4.302710      1.843160
  H      -3.211903      4.837434      2.423689
  H      -4.957833      4.568368      2.233244
  H      -3.905388      4.604034      0.802185
  H      -4.960848      2.479412      3.631890
  H      -3.247066      2.771518      3.984821
  H      -3.755515      1.229707      3.269756
  H      -1.131531     -2.446907     -2.402285
  H      -4.437471     -0.817212     -0.192222
  H      -3.556648     -2.445499     -1.868836
  H       1.073694     -1.603057     -2.101082
  H       2.684696     -0.094749     -1.008839
  H      -0.127980      3.304602      2.876175
  H       2.305841      3.292287      2.369578
  H       3.154248      1.692325      0.629212
34
Coordinates from ORCA-job 1globalminimum E -878.329334648967
  C      -3.378503     -0.812121     -0.451354
  C      -2.884346     -1.721322     -1.396600
  C      -1.537400     -1.734799     -1.684935
  C      -2.531016      0.066388      0.194333
  C      -1.132672      0.084500     -0.063477
  O      -3.119637      0.860393      1.169501
  C      -0.650056     -0.850636     -1.032879
  C       0.749712     -0.904606     -1.346486
  C       1.645553     -0.091684     -0.734357
  C      -0.166498      0.960635      0.591467
  C       1.213339      0.853921      0.249295
  N      -0.587669      1.857642      1.515671
  C       0.300325      2.637298      2.110654
  C       1.678633      2.600376      1.844541
  C       2.130708      1.701992      0.904076
  C      -3.322850      2.192312      0.881729
  O      -3.140481      2.653674     -0.230743
  N      -3.794471      2.863565      1.954883
  C      -3.908061      2.306611      3.298369
  C      -4.058490      4.292335      1.837819
  H      -3.303226      4.867951      2.383651
  H      -5.040040      4.520463      2.260673
  H      -4.042162      4.582191      0.791614
  H      -4.919566      2.472491      3.679501
  H      -3.200567      2.800339      3.972536
  H      -3.703319      1.242259      3.289063
  H      -1.136488     -2.431005     -2.414068
  H      -4.434113     -0.781811     -0.206318
  H      -3.563883     -2.403765     -1.895157
  H       1.077483     -1.623072     -2.090802
  H       2.702196     -0.144664     -0.977372
  H      -0.092167      3.339340      2.842664
  H       2.352490      3.266480      2.370878
  H       3.185393      1.634172      0.656009
34
Coordinates from ORCA-job 1globalminimum E -878.329384959597
  C      -3.375907     -0.790582     -0.459478
  C      -2.886726     -1.697341     -1.409772
  C      -1.539010     -1.721533     -1.692733
  C      -2.523119      0.076759      0.194099
  C      -1.124272      0.087947     -0.062224
  O      -3.107157      0.866275      1.176895
  C      -0.645916     -0.848437     -1.033253
  C       0.754600     -0.915519     -1.340686
  C       1.655033     -0.112652     -0.722244
  C      -0.154191      0.959047      0.593577
  C       1.226432      0.838252      0.257932
  N      -0.571567      1.866140      1.509788
  C       0.321460      2.641766      2.103784
  C       1.701097      2.589563      1.845186
  C       2.148673      1.681020      0.912515
  C      -3.339396      2.191137      0.884301
  O      -3.181758      2.648546     -0.233893
  N      -3.808280      2.862719      1.958760
  C      -3.886341      2.316278      3.309614
  C      -4.115669      4.281992      1.830347
  H      -3.368470      4.887746      2.354004
  H      -5.095646      4.485747      2.269219
  H      -4.127648      4.559228      0.780514
  H      -4.892122      2.471687      3.709650
  H      -3.171955      2.825475      3.964718
  H      -3.667227      1.254688      3.305201
  H      -1.141566     -2.417893     -2.423720
  H      -4.431658     -0.754901     -0.215521
  H      -3.570518     -2.370860     -1.914748
  H       1.078745     -1.635752     -2.084948
  H       2.712642     -0.175578     -0.958814
  H      -0.068643      3.353061      2.828051
  H       2.380471      3.252232      2.368923
  H       3.203757      1.601581      0.669335
34
Coordinates from ORCA-job 1globalminimum E -878.329392944258
  C      -3.374227     -0.779815     -0.461607
  C      -2.888132     -1.686111     -1.413952
  C      -1.540133     -1.715750     -1.694904
  C      -2.518444      0.082150      0.195130
  C      -1.119699      0.089318     -0.060691
  O      -3.100353      0.869739      1.181448
  C      -0.644140     -0.847742     -1.032576
  C       0.756459     -0.920655     -1.338279
  C       1.659345     -0.121405     -0.718666
  C      -0.147271      0.957510      0.595151
  C       1.233064      0.831872      0.260201
  N      -0.562679      1.867291      1.509499
  C       0.332545      2.641755      2.102217
  C       1.712026      2.585196      1.844105
  C       2.157270      1.673346      0.913479
  C      -3.345087      2.191356      0.886519
  O      -3.194772      2.647279     -0.233556
  N      -3.815388      2.862533      1.960479
  C      -3.880910      2.319829      3.313513
  C      -4.140984      4.277115      1.826748
  H      -3.399941      4.895524      2.344285
  H      -5.122098      4.470700      2.267690
  H      -4.159694      4.549092      0.775609
  H      -4.884634      2.470640      3.720191
  H      -3.164642      2.834576      3.962163
  H      -3.655937      1.259392      3.310333
  H      -1.144637     -2.412555     -2.426491
  H      -4.429954     -0.740915     -0.218156
  H      -3.574319     -2.355308     -1.921359
  H       1.078335     -1.642210     -2.082204
  H       2.717068     -0.188415     -0.953433
  H      -0.056027      3.355104      2.825217
  H       2.393935      3.247193      2.365373
  H       3.212205      1.590210      0.670903
34
Coordinates from ORCA-job 1globalminimum E -878.329394235371
  C      -3.373715     -0.778006     -0.460870
  C      -2.888553     -1.684418     -1.413569
  C      -1.540513     -1.715091     -1.694476
  C      -2.517140      0.082913      0.196272
  C      -1.118586      0.089241     -0.059660
  O      -3.098769      0.870368      1.183079
  C      -0.643952     -0.847842     -1.031964
  C       0.756523     -0.921252     -1.338327
  C       1.660027     -0.121949     -0.719642
  C      -0.145387      0.956864      0.595844
  C       1.234570      0.831512      0.259427
  N      -0.560210      1.865577      1.511498
  C       0.335458      2.640143      2.103607
  C       1.714458      2.584704      1.843327
  C       2.159030      1.673369      0.911784
  C      -3.344999      2.191573      0.887459
  O      -3.194017      2.647141     -0.232745
  N      -3.817017      2.862675      1.960710
  C      -3.882960      2.320070      3.313711
  C      -4.144471      4.276602      1.825620
  H      -3.406120      4.896411      2.345349
  H      -5.127480      4.469137      2.262789
  H      -4.159595      4.548285      0.774349
  H      -4.886643      2.471048      3.720390
  H      -3.166599      2.834397      3.962612
  H      -3.658311      1.259574      3.310421
  H      -1.145484     -2.412032     -2.426169
  H      -4.429419     -0.738277     -0.217489
  H      -3.575373     -2.352811     -1.921153
  H       1.077664     -1.643225     -2.082154
  H       2.717575     -0.189117     -0.955088
  H      -0.052509      3.352370      2.828030
  H       2.396931      3.247064      2.363397
  H       3.213736      1.590824      0.668012
34
Coordinates from ORCA-job 1globalminimum E -878.329394920084
  C      -3.373321     -0.777567     -0.459145
  C      -2.888966     -1.684057     -1.412140
  C      -1.540926     -1.715095     -1.693501
  C      -2.516093      0.082794      0.197992
  C      -1.117826      0.088703     -0.058257
  O      -3.097337      0.870553      1.184954
  C      -0.644053     -0.848088     -1.031219
  C       0.756204     -0.920924     -1.339020
  C       1.660115     -0.120841     -0.721932
  C      -0.143914      0.955997      0.596838
  C       1.235488      0.832219      0.257925
  N      -0.558238      1.862717      1.514788
  C       0.337725      2.637617      2.106250
  C       1.716015      2.584594      1.842652
  C       2.159962      1.674814      0.909202
  C      -3.343846      2.191582      0.888282
  O      -3.190744      2.646641     -0.231851
  N      -3.817876      2.862901      1.960547
  C      -3.886620      2.320067      3.313225
  C      -4.145020      4.276680      1.824309
  H      -3.410365      4.896333      2.349481
  H      -5.131184      4.469090      2.254419
  H      -4.152476      4.549113      0.773158
  H      -4.890350      2.473197      3.718977
  H      -3.169761      2.832241      3.963321
  H      -3.664568      1.259024      3.309697
  H      -1.146255     -2.411978     -2.425422
  H      -4.428983     -0.737291     -0.215665
  H      -3.576283     -2.352007     -1.919604
  H       1.076692     -1.643068     -2.082959
  H       2.717343     -0.187265     -0.958948
  H      -0.049622      3.347779      2.833021
  H       2.398909      3.247394      2.361572
  H       3.214325      1.593972      0.663432
