! B3LYP/G OPT FREQ 6-311G* CPCM(Water)

* xyz 0 1 
C  -3.40418561955923770768 -0.99631005054325905146 -0.39945067512701076806
C  -2.86003569140734725806 -1.89319737171454383073 -1.31588925260829570085
C  -1.52887018819225151134 -1.81824350011512470005 -1.63656634391916422366
C  -2.60480732717914786889 -0.05925789879808396332 0.21926755552678772743
C  -1.22033769793655166858 0.00321833407012269129 -0.04013563057553640873
O  -3.22566434923104861099 0.79631054626813357888 1.11602588975354932721
C  -0.69392435573664201787 -0.87394852637880804380 -1.01946021458804714221
C  0.68135913817745608068 -0.78262821445513786056 -1.38362455440802945006
C  1.50131024759285325310 0.13170998989336724083 -0.81882887272621129870
C  -0.32484590173190724949 0.91100032385525531176 0.62930817786401893610
C  1.02433153950373667662 0.99542214410545248882 0.20545608859965067139
N  -0.77862398343765260034 1.64587489910303053087 1.65548728667281430660
C  0.02415575420194841089 2.50404719237332029635 2.23639577404294520591
C  1.35217334624980178859 2.70635534334686900237 1.85559653171739702415
C  1.85614085926917060654 1.93104584547808699746 0.84025730580607438380
C  -3.08669262984488712576 2.13358631053785074982 0.90178775083343065688
O  -2.70907129774251975718 2.59409262115029859430 -0.16866818650521045453
N  -3.52585656746685760510 2.86634732026504313041 1.92751668859112501586
C  -3.93788174192128792583 2.31792630761306517329 3.19986195960180497266
C  -3.49943758584627495622 4.30934757360949571847 1.85212018671582345775
H  -2.80218822978963322257 4.70966289254423653432 2.58929216364634440239
H  -4.49678694042663540387 4.70410433577167275132 2.04692192723900356910
H  -3.17863676761233371337 4.60230594469961573623 0.85495701784443145499
H  -4.95964236921039702821 2.63307399981554723922 3.41430917114515120048
H  -3.27773194158414282739 2.68659686653387019817 3.98608468432912976809
H  -3.88924873719626074120 1.23491202143540190761 3.16842757927880125379
H  -1.10316177703179940650 -2.48255890405942647448 -2.37236565104667151971
H  -4.45706345951978377684 -1.01155610100678128305 -0.16534282105293701681
H  -3.49905283168166425511 -2.62368833292888714581 -1.78560943801850058321
H  1.04633787113746778985 -1.45858146877639605066 -2.14168485970076227787
H  2.53564154296639321373 0.21825426054947449916 -1.11626243196565955174
H  -0.41114150143429017970 3.05848059475524491901 3.05675355085114919262
H  1.95737169720178050270 3.44109275586225260568 2.36102610844557814218
H  2.88421748112794373853 2.02304193786384445275 0.52141551218080395280
*
