34
Coordinates from ORCA-job 1globalminimum E -878.329394920084
  C          -3.37332123520411     -0.77756745036519     -0.45914482981893
  C          -2.88896631798264     -1.68405656758240     -1.41213974347907
  C          -1.54092592255366     -1.71509519035958     -1.69350109762081
  C          -2.51609349999594      0.08279416475094      0.19799212327722
  C          -1.11782628060469      0.08870263288316     -0.05825711676907
  O          -3.09733663780393      0.87055277434417      1.18495394769180
  C          -0.64405334500213     -0.84808767858093     -1.03121896851705
  C           0.75620419785430     -0.92092382974677     -1.33902027550686
  C           1.66011462420424     -0.12084148433961     -0.72193177746925
  C          -0.14391368897242      0.95599709780576      0.59683782815202
  C           1.23548835522426      0.83221869016460      0.25792507288685
  N          -0.55823835029367      1.86271655213302      1.51478810216330
  C           0.33772490290337      2.63761685659873      2.10624985989368
  C           1.71601450713851      2.58459396916269      1.84265172286894
  C           2.15996173241528      1.67481446264269      0.90920220621482
  C          -3.34384614356621      2.19158220371613      0.88828248697395
  O          -3.19074442541205      2.64664055612505     -0.23185147712376
  N          -3.81787580799306      2.86290050239720      1.96054746667890
  C          -3.88662035204771      2.32006660234363      3.31322469634869
  C          -4.14501967245314      4.27668041657587      1.82430940571829
  H          -3.41036528974322      4.89633258106755      2.34948052386105
  H          -5.13118415298193      4.46908987147328      2.25441881548690
  H          -4.15247560459231      4.54911302735018      0.77315849743023
  H          -4.89035012580821      2.47319745321709      3.71897687882422
  H          -3.16976051350756      2.83224106978920      3.96332136095311
  H          -3.66456786938260      1.25902361869754      3.30969695497368
  H          -1.14625454044115     -2.41197794414233     -2.42542170898081
  H          -4.42898293300099     -0.73729051621399     -0.21566465965658
  H          -3.57628287942948     -2.35200676399807     -1.91960419314061
  H           1.07669172192788     -1.64306843318997     -2.08295895876688
  H           2.71734312730069     -0.18726486298157     -0.95894751332891
  H          -0.04962175173404      3.34777939016829      2.83302057809014
  H           2.39890942916508      3.24739374669967      2.36157176981105
  H           3.21432472708122      1.59397247411807      0.66343200032354
