34
Coordinates from ORCA-job 5higherenergy E -878.190144580699
  C          -3.20005553703263     -0.47996151115577     -0.44774621811256
  C          -2.77240960676585     -1.49886027912126     -1.30415982324908
  C          -1.41226990580510     -1.67552056290139     -1.52565030994808
  C          -2.26597167512361      0.37200297797092      0.16676468070022
  C          -0.85932276107510      0.28452171182196     -0.09154884557446
  O          -2.68965161508066      1.22209992042039      1.14089738760025
  C          -0.44114260607832     -0.82408536335596     -0.93019505800823
  C           0.92230934430385     -1.03671235842782     -1.17304856261835
  C           1.88312304332272     -0.18755792151292     -0.62169766375629
  C           0.11951376290961      1.23495789665401      0.37161296608678
  C           1.52242316676215      0.95153448192230      0.12624793200970
  N          -0.26369157692419      2.37015809566393      1.01666460752877
  C           0.69515432622268      3.18372828851026      1.51126423841495
  C           2.06275313969561      2.94972001111330      1.39574000439332
  C           2.49362841828657      1.83325971805231      0.67113913519297
  C          -3.81679421638233      2.02423660304237      0.96691497771014
  O          -4.33473989772739      2.18565751998617     -0.11983955586255
  N          -4.17738320414070      2.59399168230553      2.13184426507352
  C          -5.34761879159263      3.46644335409861      2.15640688211431
  C          -3.56491440691536      2.30504220972411      3.42747340675552
  H          -2.60590624456226      1.81652518207790      3.29711257921127
  H          -4.22001592848278      1.66304679583513      4.02435376418048
  H          -3.41637813636849      3.24445963554102      3.96372226391147
  H          -5.08778105355511      4.41314069100734      2.63541282608615
  H          -6.15722321198274      2.99789925007885      2.72396910038072
  H          -5.68386692949761      3.65481148342340      1.14144985969629
  H          -1.06598587075162     -2.47776494110453     -2.16868032591990
  H          -4.24761921925221     -0.37475060433783     -0.20147737271308
  H          -3.49616626603439     -2.16388446487571     -1.75967851088813
  H           1.22644593422436     -1.87331603209035     -1.79275755270218
  H           2.93712477106064     -0.39567120745293     -0.77845769353749
  H           0.33568114657042      4.08691730931964      1.99872427961584
  H           2.77016468415096      3.65468911720243      1.81898509634644
  H           3.54674693623768      1.63707131771471      0.50261724478385
