34
Coordinates from ORCA-job 5higherenergy E -878.176914686962
  C      -3.166528     -0.743062     -0.232604
  C      -2.725025     -1.668357     -1.176622
  C      -1.406235     -1.691128     -1.547778
  C      -2.286509      0.157793      0.326403
  C      -0.918919      0.158057     -0.028392
  O      -2.722151      1.047353      1.291500
  C      -0.487071     -0.790298     -0.986759
  C       0.880209     -0.821237     -1.388663
  C       1.783836      0.045486     -0.879579
  C       0.045828      1.074063      0.526637
  C       1.392477      1.012661      0.086370
  N      -0.343063      1.966510      1.449130
  C       0.535145      2.803410      1.945073
  C       1.881746      2.831924      1.572813
  C       2.308847      1.923469      0.636179
  C      -3.782492      1.853731      1.033603
  O      -4.393971      1.855032     -0.026798
  N      -4.074947      2.656256      2.059954
  C      -5.224184      3.531885      1.934864
  C      -3.319748      2.685736      3.293954
  H      -2.360858      2.199771      3.136908
  H      -3.866198      2.172316      4.086979
  H      -3.154368      3.722688      3.581380
  H      -5.307792      4.127915      2.836697
  H      -6.134000      2.945759      1.794734
  H      -5.108251      4.182821      1.066888
  H      -1.055179     -2.402378     -2.279165
  H      -4.204548     -0.715977      0.061461
  H      -3.430907     -2.361588     -1.605590
  H       1.172381     -1.559435     -2.119612
  H       2.817944      0.024390     -1.189501
  H       0.148144      3.492663      2.683854
  H       2.555283      3.546477      2.017283
  H       3.339261      1.893123      0.312777
34
Coordinates from ORCA-job 5higherenergy E -878.186511011260
  C      -3.186566     -0.683661     -0.254884
  C      -2.751741     -1.640247     -1.178189
  C      -1.414566     -1.687275     -1.532727
  C      -2.287825      0.220155      0.311238
  C      -0.890356      0.208878     -0.017587
  O      -2.757005      1.085477      1.271642
  C      -0.475968     -0.787699     -0.974687
  C       0.878064     -0.864050     -1.375327
  C       1.824114     -0.002184     -0.869836
  C       0.106755      1.124257      0.513839
  C       1.471033      1.004702      0.066629
  N      -0.229164      2.074985      1.426904
  C       0.710505      2.892609      1.909086
  C       2.058071      2.839765      1.541136
  C       2.440109      1.885867      0.602002
  C      -3.843369      1.878238      1.015289
  O      -4.433527      1.893252     -0.056454
  N      -4.172783      2.638615      2.075432
  C      -5.352139      3.490594      1.951881
  C      -3.440737      2.639129      3.340085
  H      -2.464421      2.186915      3.195216
  H      -3.989651      2.084397      4.107831
  H      -3.307832      3.669229      3.674888
  H      -5.473261      4.052272      2.874316
  H      -6.247508      2.889563      1.774229
  H      -5.240349      4.183049      1.114458
  H      -1.065035     -2.422030     -2.250007
  H      -4.226660     -0.644500      0.038361
  H      -3.464929     -2.337826     -1.600825
  H       1.150852     -1.628856     -2.094910
  H       2.863613     -0.075453     -1.172583
  H       0.362562      3.644900      2.615120
  H       2.768282      3.541409      1.963683
  H       3.469592      1.803355      0.269133
34
Coordinates from ORCA-job 5higherenergy E -878.188210448445
  C      -3.192055     -0.664074     -0.279314
  C      -2.760730     -1.645245     -1.180130
  C      -1.412269     -1.710793     -1.514577
  C      -2.283071      0.244865      0.285200
  C      -0.880324      0.223200     -0.023812
  O      -2.746974      1.107288      1.243059
  C      -0.466633     -0.806978     -0.962257
  C       0.882050     -0.904699     -1.344494
  C       1.837642     -0.031533     -0.836896
  C       0.105363      1.147962      0.487340
  C       1.484398      1.003786      0.061151
  N      -0.246196      2.139766      1.356731
  C       0.708346      2.966891      1.825861
  C       2.061615      2.880408      1.495843
  C       2.456860      1.890545      0.586440
  C      -3.824255      1.932582      0.995044
  O      -4.371738      2.016561     -0.091948
  N      -4.172040      2.634993      2.091929
  C      -5.333750      3.517400      1.974260
  C      -3.495625      2.535175      3.387982
  H      -2.524296      2.069023      3.262068
  H      -4.090455      1.949472      4.096121
  H      -3.354813      3.538141      3.795012
  H      -5.480175      4.024148      2.925437
  H      -6.234661      2.948690      1.730879
  H      -5.179092      4.261977      1.190338
  H      -1.059542     -2.465165     -2.210595
  H      -4.230966     -0.616921      0.015821
  H      -3.473668     -2.348769     -1.594305
  H       1.161854     -1.685612     -2.044669
  H       2.881365     -0.131799     -1.119832
  H       0.360649      3.756507      2.489659
  H       2.770724      3.589672      1.909573
  H       3.490621      1.790365      0.271460
34
Coordinates from ORCA-job 5higherenergy E -878.188754450645
  C      -3.190183     -0.613283     -0.293332
  C      -2.771843     -1.611525     -1.179202
  C      -1.418653     -1.709689     -1.489923
  C      -2.266215      0.279225      0.279573
  C      -0.863953      0.242371     -0.022178
  O      -2.722869      1.136561      1.238418
  C      -0.459811     -0.816068     -0.940022
  C       0.886506     -0.944795     -1.303910
  C       1.852231     -0.071835     -0.799163
  C       0.120109      1.174324      0.461015
  C       1.506660      0.993755      0.059112
  N      -0.236328      2.209244      1.277410
  C       0.732627      3.037171      1.728138
  C       2.087200      2.912390      1.432610
  C       2.486198      1.882568      0.566564
  C      -3.801010      1.972071      0.993344
  O      -4.305057      2.101049     -0.106405
  N      -4.182168      2.620890      2.110998
  C      -5.335619      3.514687      1.991862
  C      -3.571447      2.438118      3.429509
  H      -2.602590      1.962143      3.327423
  H      -4.209092      1.825908      4.074450
  H      -3.436446      3.414576      3.897649
  H      -5.517308      3.972969      2.961585
  H      -6.229352      2.964856      1.687659
  H      -5.147214      4.299781      1.256937
  H      -1.071373     -2.480686     -2.169623
  H      -4.229570     -0.544491     -0.001176
  H      -3.491446     -2.306483     -1.594685
  H       1.168620     -1.741266     -1.984446
  H       2.896564     -0.204059     -1.064802
  H       0.389252      3.863180      2.347030
  H       2.799731      3.625610      1.832296
  H       3.522009      1.758565      0.269664
34
Coordinates from ORCA-job 5higherenergy E -878.188969660121
  C      -3.188675     -0.574108     -0.315487
  C      -2.776609     -1.582222     -1.191142
  C      -1.421855     -1.705431     -1.480142
  C      -2.257753      0.307624      0.262892
  C      -0.857151      0.258334     -0.034410
  O      -2.705748      1.159224      1.228866
  C      -0.455551     -0.821647     -0.927565
  C       0.894190     -0.977644     -1.264521
  C       1.862517     -0.107970     -0.756884
  C       0.125783      1.197638      0.430705
  C       1.517887      0.984210      0.064881
  N      -0.237962      2.267329      1.196069
  C       0.735514      3.092959      1.643038
  C       2.093083      2.935758      1.388836
  C       2.499353      1.873547      0.567327
  C      -3.793890      1.992702      0.998155
  O      -4.280489      2.149099     -0.104231
  N      -4.184623      2.609965      2.128227
  C      -5.334460      3.509465      2.019649
  C      -3.605669      2.374706      3.451097
  H      -2.641542      1.887298      3.355873
  H      -4.266203      1.750409      4.060117
  H      -3.467914      3.332870      3.954530
  H      -5.526445      3.942226      2.999036
  H      -6.226044      2.970206      1.691621
  H      -5.134366      4.314179      1.309738
  H      -1.076846     -2.489998     -2.145024
  H      -4.228331     -0.490404     -0.027831
  H      -3.499840     -2.270100     -1.611317
  H       1.182946     -1.788275     -1.924648
  H       2.908623     -0.267286     -0.998950
  H       0.390214      3.945766      2.223053
  H       2.806568      3.649738      1.784863
  H       3.539452      1.727663      0.297959
34
Coordinates from ORCA-job 5higherenergy E -878.189142636573
  C      -3.190494     -0.525816     -0.354742
  C      -2.781675     -1.542567     -1.220843
  C      -1.425747     -1.695324     -1.481743
  C      -2.253461      0.342177      0.232570
  C      -0.854179      0.275293     -0.057022
  O      -2.687750      1.190735      1.206545
  C      -0.452574     -0.826107     -0.918992
  C       0.903479     -1.015147     -1.214552
  C       1.871792     -0.153516     -0.696106
  C       0.129031      1.221238      0.394956
  C       1.525853      0.968840      0.082841
  N      -0.243307      2.330061      1.095352
  C       0.729843      3.150551      1.550111
  C       2.091635      2.953881      1.356234
  C       2.507151      1.856482      0.590236
  C      -3.796307      2.009920      1.001589
  O      -4.298832      2.166510     -0.093000
  N      -4.182024      2.601693      2.144368
  C      -5.346841      3.484645      2.063897
  C      -3.600823      2.336661      3.459172
  H      -2.637011      1.850257      3.352448
  H      -4.260855      1.697842      4.053492
  H      -3.462242      3.282879      3.984331
  H      -5.529855      3.904499      3.050489
  H      -6.235283      2.935315      1.744282
  H      -5.167892      4.299448      1.360154
  H      -1.082830     -2.493569     -2.131217
  H      -4.231374     -0.425262     -0.077174
  H      -3.508501     -2.219582     -1.652107
  H       1.200829     -1.842242     -1.849642
  H       2.920284     -0.344005     -0.902699
  H       0.380051      4.032373      2.082161
  H       2.804995      3.666180      1.755471
  H       3.553077      1.683487      0.363521
34
Coordinates from ORCA-job 5higherenergy E -878.189230534262
  C      -3.195080     -0.512662     -0.383660
  C      -2.780734     -1.531081     -1.245683
  C      -1.423554     -1.694842     -1.490645
  C      -2.258539      0.350846      0.210392
  C      -0.858291      0.277123     -0.073010
  O      -2.684010      1.197882      1.189300
  C      -0.450630     -0.831777     -0.917910
  C       0.910040     -1.033394     -1.186969
  C       1.873743     -0.174380     -0.658741
  C       0.122208      1.230974      0.374357
  C       1.521475      0.962526      0.097086
  N      -0.258543      2.359945      1.035425
  C       0.707759      3.180807      1.501907
  C       2.072915      2.966067      1.347931
  C       2.497792      1.852508      0.613147
  C      -3.803500      2.009546      1.004408
  O      -4.316306      2.175467     -0.084352
  N      -4.171896      2.598357      2.153547
  C      -5.337413      3.482298      2.092749
  C      -3.580839      2.320121      3.461389
  H      -2.623667      1.823576      3.343292
  H      -4.242554      1.684542      4.057433
  H      -3.427296      3.261650      3.990854
  H      -5.497623      3.910362      3.079697
  H      -6.233251      2.931480      1.796799
  H      -5.172085      4.290432      1.378285
  H      -1.078810     -2.497288     -2.134166
  H      -4.237434     -0.409113     -0.114277
  H      -3.506532     -2.203604     -1.686025
  H       1.214531     -1.867811     -1.809159
  H       2.924477     -0.376594     -0.842307
  H       0.351351      4.076959      2.004988
  H       2.782734      3.679033      1.752774
  H       3.547724      1.667874      0.415520
34
Coordinates from ORCA-job 5higherenergy E -878.189300863982
  C      -3.199807     -0.503569     -0.400529
  C      -2.780868     -1.523331     -1.259850
  C      -1.422905     -1.693680     -1.497754
  C      -2.262550      0.356607      0.197160
  C      -0.860586      0.276422     -0.081805
  O      -2.679609      1.207649      1.175224
  C      -0.449355     -0.834778     -0.918780
  C       0.913404     -1.042237     -1.174977
  C       1.875221     -0.185744     -0.640637
  C       0.119423      1.234189      0.364253
  C       1.519362      0.957391      0.105343
  N      -0.264298      2.372316      1.006463
  C       0.696774      3.192455      1.483968
  C       2.064044      2.966932      1.352074
  C       2.492809      1.847416      0.630161
  C      -3.804900      2.013825      1.002414
  O      -4.337400      2.170330     -0.078722
  N      -4.164703      2.600897      2.155524
  C      -5.341129      3.471618      2.109161
  C      -3.558812      2.325870      3.458213
  H      -2.601606      1.832243      3.330593
  H      -4.212655      1.688703      4.061275
  H      -3.402964      3.268367      3.985333
  H      -5.481473      3.914516      3.092528
  H      -6.237905      2.906717      1.843460
  H      -5.201242      4.268204      1.376728
  H      -1.078668     -2.497195     -2.140377
  H      -4.243476     -0.399232     -0.137605
  H      -3.506769     -2.192800     -1.705177
  H       1.218961     -1.880023     -1.792424
  H       2.927398     -0.392155     -0.811691
  H       0.337407      4.095188      1.972860
  H       2.772278      3.678536      1.762591
  H       3.544759      1.656180      0.449382
34
Coordinates from ORCA-job 5higherenergy E -878.189340298830
  C      -3.204277     -0.497130     -0.415391
  C      -2.780349     -1.518227     -1.271509
  C      -1.421434     -1.692693     -1.503864
  C      -2.267010      0.360493      0.186273
  C      -0.862750      0.276034     -0.086954
  O      -2.679984      1.213249      1.162678
  C      -0.447849     -0.836042     -0.920099
  C       0.915510     -1.046251     -1.168964
  C       1.876480     -0.191344     -0.629259
  C       0.116341      1.235729      0.359627
  C       1.517372      0.954074      0.111574
  N      -0.268481      2.378630      0.991317
  C       0.689121      3.198152      1.477641
  C       2.057509      2.964818      1.361180
  C       2.488663      1.843114      0.644874
  C      -3.812665      2.009876      1.000342
  O      -4.360718      2.159021     -0.074083
  N      -4.160658      2.601601      2.155364
  C      -5.344721      3.462806      2.121119
  C      -3.537422      2.335418      3.452481
  H      -2.581723      1.841566      3.315422
  H      -4.183356      1.702033      4.067835
  H      -3.375734      3.281495      3.971381
  H      -5.458394      3.931287      3.096052
  H      -6.245006      2.885056      1.897242
  H      -5.232555      4.239169      1.362978
  H      -1.077638     -2.496576     -2.146294
  H      -4.249470     -0.393882     -0.158539
  H      -3.505848     -2.186679     -1.719388
  H       1.220154     -1.885817     -1.784599
  H       2.929914     -0.398897     -0.791107
  H       0.328664      4.105210      1.957222
  H       2.764678      3.674768      1.776646
  H       3.541790      1.647770      0.475184
34
Coordinates from ORCA-job 5higherenergy E -878.189384373188
  C      -3.207555     -0.485145     -0.430827
  C      -2.779658     -1.510234     -1.280568
  C      -1.420239     -1.691442     -1.505449
  C      -2.269673      0.369844      0.174174
  C      -0.863152      0.278791     -0.091300
  O      -2.678821      1.225833      1.147509
  C      -0.445619     -0.837015     -0.918493
  C       0.917569     -1.052644     -1.159760
  C       1.879014     -0.198969     -0.616045
  C       0.115540      1.239536      0.353668
  C       1.517926      0.950193      0.116714
  N      -0.268363      2.388243      0.973045
  C       0.687572      3.207217      1.465069
  C       2.055950      2.964297      1.364182
  C       2.488102      1.838140      0.656464
  C      -3.817989      2.014290      0.995886
  O      -4.377783      2.161320     -0.072415
  N      -4.158895      2.602392      2.155664
  C      -5.351107      3.452662      2.135433
  C      -3.525288      2.334517      3.447786
  H      -2.571563      1.839347      3.302489
  H      -4.167648      1.702102      4.067773
  H      -3.358556      3.280293      3.965717
  H      -5.433691      3.952526      3.097925
  H      -6.254227      2.861304      1.962775
  H      -5.272220      4.203169      1.348175
  H      -1.077991     -2.498214     -2.145015
  H      -4.254226     -0.381526     -0.181346
  H      -3.505254     -2.178418     -1.728901
  H       1.219761     -1.895740     -1.771806
  H       2.933422     -0.409371     -0.767352
  H       0.327919      4.120479      1.932847
  H       2.762961      3.672755      1.782606
  H       3.541941      1.637296      0.497756
34
Coordinates from ORCA-job 5higherenergy E -878.189442488046
  C      -3.209713     -0.469628     -0.447725
  C      -2.778381     -1.499495     -1.290106
  C      -1.418918     -1.688721     -1.506461
  C      -2.270944      0.381532      0.161283
  C      -0.862591      0.283025     -0.095461
  O      -2.676608      1.243041      1.129372
  C      -0.442709     -0.837038     -0.916532
  C       0.919982     -1.059031     -1.150531
  C       1.882325     -0.206692     -0.602729
  C       0.115687      1.243729      0.348449
  C       1.519620      0.945691      0.122037
  N      -0.266271      2.396747      0.957326
  C       0.688520      3.215004      1.454013
  C       2.056242      2.962688      1.367374
  C       2.488826      1.832160      0.668478
  C      -3.825415      2.018616      0.990104
  O      -4.397321      2.161815     -0.071786
  N      -4.158215      2.603534      2.154816
  C      -5.359503      3.440480      2.151236
  C      -3.515208      2.332434      3.441570
  H      -2.565221      1.832664      3.288395
  H      -4.156223      1.703480      4.066406
  H      -3.340601      3.277653      3.958094
  H      -5.394130      3.996449      3.085713
  H      -6.264874      2.832980      2.064514
  H      -5.331735      4.141976      1.317631
  H      -1.079047     -2.499217     -2.142515
  H      -4.258202     -0.364200     -0.207570
  H      -3.504456     -2.167079     -1.738755
  H       1.218774     -1.905766     -1.759118
  H       2.937570     -0.420162     -0.742989
  H       0.330314      4.134086      1.910892
  H       2.763449      3.669299      1.788707
  H       3.543138      1.625776      0.520245
34
Coordinates from ORCA-job 5higherenergy E -878.189538222043
  C      -3.209805     -0.449497     -0.463034
  C      -2.776640     -1.486336     -1.295722
  C      -1.417746     -1.684847     -1.502856
  C      -2.269715      0.398267      0.148379
  C      -0.859980      0.290699     -0.098463
  O      -2.672600      1.267828      1.108899
  C      -0.439156     -0.835629     -0.911940
  C       0.922444     -1.066106     -1.139296
  C       1.886876     -0.214826     -0.589591
  C       0.119146      1.249863      0.344177
  C       1.524448      0.941519      0.126005
  N      -0.258424      2.406924      0.943428
  C       0.697167      3.224859      1.440198
  C       2.063381      2.963180      1.364196
  C       2.494197      1.826732      0.675832
  C      -3.830681      2.030701      0.980844
  O      -4.408186      2.175569     -0.077174
  N      -4.160192      2.605420      2.152692
  C      -5.368701      3.430136      2.168380
  C      -3.520321      2.315128      3.436209
  H      -2.577249      1.803889      3.278860
  H      -4.170414      1.690092      4.055634
  H      -3.334362      3.253996      3.960614
  H      -5.336963      4.071030      3.047572
  H      -6.271369      2.812607      2.210984
  H      -5.413558      4.049367      1.274104
  H      -1.081112     -2.501117     -2.133166
  H      -4.260011     -0.340302     -0.233213
  H      -3.503760     -2.153674     -1.743138
  H       1.216533     -1.917641     -1.743229
  H       2.942472     -0.432520     -0.719620
  H       0.341889      4.150100      1.886421
  H       2.772136      3.668279      1.785518
  H       3.548414      1.614143      0.535875
34
Coordinates from ORCA-job 5higherenergy E -878.189652797041
  C      -3.205715     -0.445195     -0.456691
  C      -2.775759     -1.484185     -1.287764
  C      -1.417735     -1.682456     -1.496735
  C      -2.264852      0.403416      0.151805
  C      -0.856077      0.295341     -0.095151
  O      -2.670525      1.277132      1.108091
  C      -0.437958     -0.832072     -0.909983
  C       0.922502     -1.063478     -1.142526
  C       1.889277     -0.211940     -0.596623
  C       0.124926      1.250997      0.348735
  C       1.530061      0.942643      0.122078
  N      -0.248712      2.403786      0.957240
  C       0.710706      3.221335      1.446877
  C       2.075917      2.962527      1.359041
  C       2.502781      1.826975      0.667100
  C      -3.829557      2.037846      0.975351
  O      -4.396466      2.186615     -0.087632
  N      -4.166535      2.606875      2.148390
  C      -5.372742      3.433056      2.167013
  C      -3.543913      2.299702      3.435423
  H      -2.604769      1.779222      3.285059
  H      -4.208021      1.677291      4.042680
  H      -3.354375      3.232520      3.969539
  H      -5.303815      4.127150      3.003464
  H      -6.272694      2.821366      2.287778
  H      -5.454904      3.995601      1.239641
  H      -1.082398     -2.500595     -2.125281
  H      -4.255760     -0.333450     -0.226925
  H      -3.503848     -2.152390     -1.732076
  H       1.214073     -1.915171     -1.747212
  H       2.944202     -0.429639     -0.731553
  H       0.357646      4.144415      1.899466
  H       2.787137      3.667448      1.776315
  H       3.556060      1.615142      0.519446
34
Coordinates from ORCA-job 5higherenergy E -878.189807676348
  C      -3.195151     -0.454797     -0.425584
  C      -2.775993     -1.491576     -1.263687
  C      -1.419326     -1.680500     -1.485662
  C      -2.253621      0.399621      0.172960
  C      -0.848950      0.299193     -0.085636
  O      -2.668052      1.272148      1.130228
  C      -0.439403     -0.825500     -0.909105
  C       0.920128     -1.052165     -1.157219
  C       1.889545     -0.199357     -0.622627
  C       0.136678      1.249145      0.360681
  C       1.538742      0.950174      0.109471
  N      -0.232726      2.391477      0.994250
  C       0.734489      3.208337      1.467026
  C       2.098345      2.964289      1.344903
  C       2.517921      1.834418      0.637714
  C      -3.817387      2.045303      0.973184
  O      -4.348146      2.205927     -0.106866
  N      -4.179063      2.607122      2.141710
  C      -5.369498      3.453681      2.148320
  C      -3.602479      2.271018      3.441318
  H      -2.666335      1.738762      3.314993
  H      -4.295017      1.649054      4.016892
  H      -3.417699      3.192300      3.996980
  H      -5.272515      4.187650      2.948433
  H      -6.274540      2.862733      2.321904
  H      -5.462170      3.971287      1.196931
  H      -1.082600     -2.497295     -2.115267
  H      -4.242350     -0.339603     -0.182976
  H      -3.505244     -2.161105     -1.703357
  H       1.213056     -1.900294     -1.766040
  H       2.941836     -0.415554     -0.779042
  H       0.383527      4.121463      1.941836
  H       2.813390      3.671042      1.751908
  H       3.568769      1.629434      0.465807
34
Coordinates from ORCA-job 5higherenergy E -878.189913584339
  C      -3.193957     -0.455154     -0.423077
  C      -2.775735     -1.491762     -1.262133
  C      -1.418908     -1.679543     -1.485937
  C      -2.252156      0.400513      0.173463
  C      -0.847735      0.300023     -0.086664
  O      -2.665700      1.274025      1.130541
  C      -0.439132     -0.824028     -0.910160
  C       0.920813     -1.050152     -1.158624
  C       1.889969     -0.197775     -0.624902
  C       0.139004      1.249686      0.360750
  C       1.540002      0.951877      0.108692
  N      -0.230781      2.391159      0.996709
  C       0.736200      3.207540      1.470310
  C       2.100508      2.964940      1.345630
  C       2.519636      1.836093      0.636135
  C      -3.813139      2.050023      0.970162
  O      -4.337653      2.213629     -0.112663
  N      -4.177900      2.609932      2.138499
  C      -5.365681      3.459485      2.149123
  C      -3.615356      2.259381      3.440779
  H      -2.683516      1.718467      3.319984
  H      -4.319550      1.640693      4.005868
  H      -3.426796      3.174992      4.004588
  H      -5.230588      4.243468      2.894817
  H      -6.261220      2.883261      2.404506
  H      -5.502663      3.913624      1.171659
  H      -1.081455     -2.495783     -2.115938
  H      -4.240693     -0.339475     -0.178423
  H      -3.505100     -2.161119     -1.701932
  H       1.214848     -1.898003     -1.767419
  H       2.941941     -0.414190     -0.783695
  H       0.384531      4.118942      1.948121
  H       2.815732      3.671559      1.752706
  H       3.570389      1.631503      0.462905
34
Coordinates from ORCA-job 5higherenergy E -878.190018905215
  C      -3.193082     -0.473379     -0.411285
  C      -2.775338     -1.502781     -1.260164
  C      -1.417350     -1.680030     -1.494594
  C      -2.252833      0.386533      0.182882
  C      -0.848449      0.293372     -0.085289
  O      -2.668455      1.254582      1.144751
  C      -0.440611     -0.821725     -0.918515
  C       0.920477     -1.037069     -1.174922
  C       1.887386     -0.185028     -0.641914
  C       0.138825      1.242718      0.367870
  C       1.537033      0.958243      0.105703
  N      -0.235275      2.377006      1.019664
  C       0.729728      3.192294      1.498640
  C       2.096043      2.960564      1.361166
  C       2.516133      1.842161      0.633219
  C      -3.804156      2.044713      0.968641
  O      -4.315399      2.207795     -0.121245
  N      -4.174023      2.614224      2.130554
  C      -5.351962      3.477254      2.138412
  C      -3.627294      2.261263      3.440346
  H      -2.696642      1.715812      3.332277
  H      -4.342078      1.646758      3.996756
  H      -3.441225      3.176049      4.006430
  H      -5.160666      4.334989      2.785227
  H      -6.226239      2.939037      2.519163
  H      -5.558028      3.824043      1.130005
  H      -1.075813     -2.488438     -2.132513
  H      -4.238148     -0.362471     -0.156372
  H      -3.503516     -2.172484     -1.701545
  H       1.218848     -1.878716     -1.790625
  H       2.938851     -0.395015     -0.813195
  H       0.374955      4.093928      1.992741
  H       2.809744      3.666949      1.771518
  H       3.566718      1.644677      0.450596
34
Coordinates from ORCA-job 5higherenergy E -878.190049927837
  C      -3.194530     -0.468372     -0.423859
  C      -2.773883     -1.497327     -1.271598
  C      -1.415492     -1.676803     -1.501438
  C      -2.255245      0.389221      0.175448
  C      -0.849389      0.294583     -0.087632
  O      -2.672462      1.255520      1.137316
  C      -0.439292     -0.820382     -0.920931
  C       0.921815     -1.037301     -1.173499
  C       1.888696     -0.186958     -0.635560
  C       0.136920      1.242878      0.367842
  C       1.536386      0.955764      0.111024
  N      -0.237194      2.378543      1.016612
  C       0.727287      3.191870      1.500784
  C       2.093494      2.955823      1.371387
  C       2.514648      1.837279      0.644581
  C      -3.810910      2.041549      0.964312
  O      -4.327796      2.199548     -0.123357
  N      -4.175329      2.612949      2.128069
  C      -5.355760      3.471577      2.147853
  C      -3.616384      2.268090      3.434580
  H      -2.683636      1.727339      3.321588
  H      -4.324459      1.652885      3.998593
  H      -3.431668      3.186679      3.995121
  H      -5.128335      4.380511      2.708383
  H      -6.196044      2.962605      2.631337
  H      -5.632987      3.732720      1.131447
  H      -1.073827     -2.485012     -2.139429
  H      -4.240612     -0.358369     -0.173243
  H      -3.501430     -2.166404     -1.714931
  H       1.219284     -1.879104     -1.789414
  H       2.940881     -0.397453     -0.801208
  H       0.373045      4.095417      1.991341
  H       2.806691      3.660263      1.785743
  H       3.565675      1.637700      0.467119
34
Coordinates from ORCA-job 5higherenergy E -878.190103845496
  C      -3.197235     -0.485453     -0.427508
  C      -2.772456     -1.506418     -1.282777
  C      -1.413079     -1.678039     -1.515696
  C      -2.261824      0.373332      0.176727
  C      -0.855082      0.286374     -0.087785
  O      -2.683685      1.230372      1.145134
  C      -0.440984     -0.820850     -0.929645
  C       0.921080     -1.028877     -1.184723
  C       1.884833     -0.178637     -0.641385
  C       0.127491      1.235199      0.373195
  C       1.527715      0.957208      0.114588
  N      -0.251924      2.365667      1.030723
  C       0.709596      3.177683      1.523156
  C       2.077032      2.948044      1.392696
  C       2.502624      1.837681      0.654760
  C      -3.813695      2.026458      0.966813
  O      -4.334048      2.179179     -0.120065
  N      -4.172685      2.609179      2.126569
  C      -5.348055      3.475609      2.142431
  C      -3.589636      2.297297      3.431418
  H      -2.646164      1.776300      3.314409
  H      -4.276796      1.676241      4.014326
  H      -3.418136      3.229011      3.974204
  H      -5.107298      4.401103      2.669309
  H      -6.177580      2.983141      2.658861
  H      -5.646909      3.705319      1.123972
  H      -1.067792     -2.479514     -2.160128
  H      -4.243270     -0.382559     -0.173905
  H      -3.497435     -2.176024     -1.729567
  H       1.221651     -1.864893     -1.807164
  H       2.937917     -0.382637     -0.809324
  H       0.352597      4.075862      2.021442
  H       2.786999      3.651669      1.813829
  H       3.554395      1.643804      0.475490
34
Coordinates from ORCA-job 5higherenergy E -878.190133269457
  C      -3.199094     -0.486516     -0.439802
  C      -2.771599     -1.504539     -1.296951
  C      -1.411733     -1.677300     -1.523897
  C      -2.265787      0.369218      0.171570
  C      -0.858781      0.283886     -0.089350
  O      -2.690468      1.219954      1.144519
  C      -0.441408     -0.822725     -0.931388
  C       0.921499     -1.031523     -1.180302
  C       1.883198     -0.181798     -0.631351
  C       0.120584      1.233547      0.373163
  C       1.522728      0.954311      0.121890
  N      -0.262060      2.366673      1.024091
  C       0.697879      3.178745      1.519486
  C       2.065386      2.947306      1.398408
  C       2.494994      1.834941      0.665964
  C      -3.816869      2.021690      0.967796
  O      -4.339104      2.176308     -0.117796
  N      -4.172800      2.602219      2.129376
  C      -5.345802      3.471803      2.149434
  C      -3.569416      2.308421      3.428533
  H      -2.617051      1.805920      3.302904
  H      -4.237240      1.677482      4.023122
  H      -3.410029      3.246779      3.963525
  H      -5.096751      4.406252      2.656731
  H      -6.166400      2.988122      2.687759
  H      -5.661199      3.684817      1.132511
  H      -1.064895     -2.477801     -2.168704
  H      -4.246012     -0.384477     -0.189667
  H      -3.495239     -2.172326     -1.748663
  H       1.224312     -1.866710     -1.802648
  H       2.937065     -0.386516     -0.793050
  H       0.339480      4.079411      2.012350
  H       2.773140      3.651368      1.822514
  H       3.547636      1.640889      0.492301
34
Coordinates from ORCA-job 5higherenergy E -878.190140444822
  C      -3.199528     -0.485704     -0.445056
  C      -2.771426     -1.502937     -1.302917
  C      -1.411352     -1.676862     -1.526654
  C      -2.266727      0.368075      0.169192
  C      -0.860054      0.283129     -0.090393
  O      -2.692092      1.216872      1.143839
  C      -0.441467     -0.823852     -0.931488
  C       0.921962     -1.033671     -1.176958
  C       1.882551     -0.184005     -0.625883
  C       0.117960      1.233476      0.372655
  C       1.520941      0.952998      0.125145
  N      -0.266180      2.367549      1.020534
  C       0.692901      3.180283      1.516105
  C       2.060499      2.948452      1.398609
  C       2.491936      1.834332      0.670178
  C      -3.816771      2.021507      0.967580
  O      -4.336472      2.179650     -0.118729
  N      -4.173435      2.598297      2.130587
  C      -5.343982      3.470691      2.153474
  C      -3.563952      2.308913      3.427516
  H      -2.607851      1.814328      3.298945
  H      -4.224316      1.672554      4.024701
  H      -3.410472      3.248690      3.961750
  H      -5.087333      4.412627      2.643242
  H      -6.157942      2.996635      2.710293
  H      -5.672237      3.668692      1.137778
  H      -1.064044     -2.477521     -2.171047
  H      -4.246882     -0.382733     -0.196950
  H      -3.494695     -2.169221     -1.757406
  H       1.226165     -1.868837     -1.798575
  H       2.936667     -0.389749     -0.784679
  H       0.333493      4.081943      2.006526
  H       2.767312      3.653145      1.823254
  H       3.544985      1.640085      0.499212
34
Coordinates from ORCA-job 5higherenergy E -878.190146212041
  C      -3.199925     -0.482226     -0.448208
  C      -2.771854     -1.500211     -1.305383
  C      -1.411679     -1.676147     -1.526810
  C      -2.266641      0.370034      0.167016
  C      -0.860069      0.283786     -0.091481
  O      -2.691194      1.218780      1.142052
  C      -0.441304     -0.824416     -0.930665
  C       0.922337     -1.036255     -1.173372
  C       1.882725     -0.186906     -0.621511
  C       0.117973      1.234447      0.371493
  C       1.521202      0.951771      0.126782
  N      -0.266198      2.370072      1.015901
  C       0.692525      3.183393      1.511017
  C       2.060147      2.949853      1.396464
  C       2.491909      1.833540      0.671958
  C      -3.816652      2.022995      0.967515
  O      -4.335590      2.183408     -0.118864
  N      -4.174616      2.595872      2.131824
  C      -5.345040      3.468143      2.156434
  C      -3.562880      2.306629      3.427654
  H      -2.605091      1.815709      3.297557
  H      -4.219851      1.666905      4.024963
  H      -3.412183      3.246206      3.963011
  H      -5.086595      4.412471      2.640729
  H      -6.156526      2.996802      2.719130
  H      -5.677815      3.661406      1.141276
  H      -1.064745     -2.477801     -2.170211
  H      -4.247534     -0.377790     -0.201707
  H      -3.495313     -2.165375     -1.761189
  H       1.226860     -1.872355     -1.793556
  H       2.936864     -0.394340     -0.777998
  H       0.332863      4.086548      1.998477
  H       2.766926      3.654892      1.820603
  H       3.545121      1.637989      0.503481
34
Coordinates from ORCA-job 5higherenergy E -878.190146228441
  C      -3.200004     -0.481302     -0.447822
  C      -2.772127     -1.499750     -1.304646
  C      -1.411956     -1.675915     -1.526180
  C      -2.266322      0.370801      0.166968
  C      -0.859747      0.284051     -0.091511
  O      -2.690425      1.220325      1.141510
  C      -0.441215     -0.824292     -0.930468
  C       0.922341     -1.036378     -1.173368
  C       1.882875     -0.187048     -0.621818
  C       0.118640      1.234651      0.371682
  C       1.521737      0.951742      0.126424
  N      -0.265074      2.369763      1.016819
  C       0.693619      3.183331      1.511549
  C       2.061273      2.949840      1.396148
  C       2.492627      1.833567      0.671466
  C      -3.816537      2.023693      0.967125
  O      -4.334601      2.184927     -0.119591
  N      -4.175972      2.594905      2.131743
  C      -5.346083      3.467514      2.156305
  C      -3.563986      2.305688      3.427500
  H      -2.605560      1.815999      3.297329
  H      -4.219968      1.664754      4.024575
  H      -3.414427      3.245152      3.963374
  H      -5.086494      4.413353      2.637098
  H      -6.156526      2.998296      2.722199
  H      -5.681004      3.657609      1.141252
  H      -1.065361     -2.477879     -2.169378
  H      -4.247602     -0.376456     -0.201510
  H      -3.495725     -2.164826     -1.760331
  H       1.226677     -1.872673     -1.793377
  H       2.936968     -0.394697     -0.778547
  H       0.333957      4.086328      1.999264
  H       2.768345      3.654913      1.819785
  H       3.545814      1.637843      0.502811
34
Coordinates from ORCA-job 5higherenergy E -878.190144580699
  C      -3.200056     -0.479962     -0.447746
  C      -2.772410     -1.498860     -1.304160
  C      -1.412270     -1.675521     -1.525650
  C      -2.265972      0.372003      0.166765
  C      -0.859323      0.284522     -0.091549
  O      -2.689652      1.222100      1.140897
  C      -0.441143     -0.824085     -0.930195
  C       0.922309     -1.036712     -1.173049
  C       1.883123     -0.187558     -0.621698
  C       0.119514      1.234958      0.371613
  C       1.522423      0.951534      0.126248
  N      -0.263692      2.370158      1.016665
  C       0.695154      3.183728      1.511264
  C       2.062753      2.949720      1.395740
  C       2.493628      1.833260      0.671139
  C      -3.816794      2.024237      0.966915
  O      -4.334740      2.185658     -0.119840
  N      -4.177383      2.593992      2.131844
  C      -5.347619      3.466443      2.156407
  C      -3.564914      2.305042      3.427473
  H      -2.605906      1.816525      3.297113
  H      -4.220016      1.663047      4.024354
  H      -3.416378      3.244460      3.963722
  H      -5.087781      4.413141      2.635413
  H      -6.157223      2.997899      2.723969
  H      -5.683867      3.654811      1.141450
  H      -1.065986     -2.477765     -2.168680
  H      -4.247619     -0.374751     -0.201477
  H      -3.496166     -2.163884     -1.759679
  H       1.226446     -1.873316     -1.792758
  H       2.937125     -0.395671     -0.778458
  H       0.335681      4.086917      1.998724
  H       2.770165      3.654689      1.818985
  H       3.546747      1.637071      0.502617
