42
Coordinates from ORCA-job NMU-1_GS E -1033.316862504854
  C      -6.516150     -1.520960      0.002630
  C      -6.586310     -2.658270     -0.995370
  C      -5.550710     -3.708330     -0.632760
  H      -6.398590     -2.270490     -1.991970
  H      -7.581410     -3.086970     -0.990870
  C      -4.197020     -3.081830     -0.372090
  H      -5.460840     -4.449460     -1.417730
  H      -5.878970     -4.235520      0.259070
  C      -4.080620     -1.709660     -0.030560
  N      -5.200210     -0.909940      0.001840
  H      -6.773230     -1.885950      0.998590
  H      -7.232270     -0.751490     -0.251990
  C      -5.121580      0.374250      0.670330
  C      -3.867760      1.114680      0.255820
  H      -5.140120      0.247680      1.754360
  H      -6.000800      0.941270      0.397050
  C      -2.638170      0.295860      0.613980
  H      -3.831330      2.080610      0.745180
  H      -3.900870      1.290190     -0.814830
  C      -2.818130     -1.159840      0.240480
  H      -2.446350      0.371790      1.680830
  H      -1.764740      0.696060      0.116290
  C      -3.068430     -3.849150     -0.444850
  C      -1.722130     -1.995200      0.164330
  C      -1.804520     -3.329350     -0.176870
  O      -0.510480     -1.456400      0.445110
  C       0.647260     -2.123500      0.409000
  C      -0.590820     -4.088680     -0.219160
  C       0.601070     -3.542230      0.057980
  O       1.636620     -1.506760      0.660860
  C       1.869020     -4.312250     -0.000280
  C       2.786670     -4.323580      1.040800
  C       2.170010     -5.084890     -1.110590
  N       3.254730     -5.828880     -1.222190
  C       4.111710     -5.832590     -0.221260
  C       3.923570     -5.094160      0.931530
  H       1.498970     -5.093750     -1.950520
  H       4.648490     -5.128920      1.721410
  H       4.987430     -6.445440     -0.336250
  H       2.609930     -3.744760      1.926550
  H      -3.154560     -4.887820     -0.709810
  H      -0.657040     -5.130720     -0.473610
42
Coordinates from ORCA-job NMU-1_GS E -1033.322310432175
  C      -6.539155     -1.519308     -0.004263
  C      -6.600687     -2.657462     -1.008152
  C      -5.559854     -3.709286     -0.644249
  H      -6.409063     -2.263621     -2.009288
  H      -7.601505     -3.090809     -1.009677
  C      -4.205444     -3.085293     -0.377206
  H      -5.466062     -4.454339     -1.435596
  H      -5.891677     -4.243601      0.251278
  C      -4.091349     -1.706559     -0.027794
  N      -5.215802     -0.906000      0.009225
  H      -6.805291     -1.889401      0.996101
  H      -7.258561     -0.742381     -0.263549
  C      -5.137448      0.387844      0.676414
  C      -3.876243      1.126823      0.265230
  H      -5.161099      0.262181      1.768329
  H      -6.022235      0.959255      0.396501
  C      -2.645114      0.302343      0.625972
  H      -3.839602      2.098616      0.758677
  H      -3.906291      1.305489     -0.812086
  C      -2.821332     -1.153046      0.249264
  H      -2.453827      0.376119      1.700824
  H      -1.762304      0.705442      0.129416
  C      -3.070539     -3.856825     -0.451897
  C      -1.717680     -1.988875      0.170839
  C      -1.799446     -3.334899     -0.178459
  O      -0.495359     -1.442551      0.458095
  C       0.679543     -2.124186      0.420635
  C      -0.589761     -4.091872     -0.222166
  C       0.616895     -3.543114      0.062211
  O       1.690751     -1.505551      0.678942
  C       1.877174     -4.318446      0.001235
  C       2.817983     -4.304771      1.031607
  C       2.157106     -5.123075     -1.103593
  N       3.248974     -5.877554     -1.216705
  C       4.130491     -5.856339     -0.219661
  C       3.958065     -5.083263      0.921916
  H       1.464160     -5.148735     -1.938427
  H       4.701239     -5.097906      1.707543
  H       5.012382     -6.478093     -0.332409
  H       2.655281     -3.697714      1.911743
  H      -3.156696     -4.902791     -0.723328
  H      -0.659298     -5.141797     -0.483033
42
Coordinates from ORCA-job NMU-1_GS E -1033.322998694837
  C      -6.545344     -1.519466     -0.013314
  C      -6.598549     -2.654703     -1.021770
  C      -5.558791     -3.707667     -0.654992
  H      -6.401220     -2.257206     -2.021414
  H      -7.599995     -3.088509     -1.030998
  C      -4.205691     -3.086926     -0.381025
  H      -5.462483     -4.453012     -1.447227
  H      -5.894952     -4.244296      0.239091
  C      -4.093786     -1.707332     -0.022966
  N      -5.218303     -0.908862      0.017992
  H      -6.822243     -1.891151      0.984323
  H      -7.259032     -0.737580     -0.277386
  C      -5.142968      0.390851      0.679778
  C      -3.877893      1.127473      0.273894
  H      -5.174781      0.268386      1.772576
  H      -6.027428      0.960088      0.390870
  C      -2.649133      0.300987      0.640753
  H      -3.843153      2.099966      0.767882
  H      -3.902383      1.306854     -0.804433
  C      -2.821746     -1.152247      0.259995
  H      -2.463359      0.372789      1.717991
  H      -1.761510      0.705259      0.151237
  C      -3.069012     -3.858529     -0.457453
  C      -1.717060     -1.986897      0.179693
  C      -1.795722     -3.337032     -0.177433
  O      -0.493039     -1.436374      0.474089
  C       0.687464     -2.129451      0.436533
  C      -0.591187     -4.090116     -0.221764
  C       0.621473     -3.541540      0.071540
  O       1.700183     -1.504425      0.699133
  C       1.876632     -4.319943      0.006263
  C       2.843511     -4.276248      1.014305
  C       2.130203     -5.160760     -1.082264
  N       3.220424     -5.922546     -1.200924
  C       4.126967     -5.870135     -0.221870
  C       3.980769     -5.060935      0.900093
  H       1.417463     -5.209222     -1.899870
  H       4.742714     -5.052731      1.668964
  H       5.005986     -6.496381     -0.336299
  H       2.701796     -3.642403      1.879495
  H      -3.153932     -4.903792     -0.734806
  H      -0.659570     -5.139586     -0.487820
42
Coordinates from ORCA-job NMU-1_GS E -1033.323285213433
  C      -6.548171     -1.520113     -0.023662
  C      -6.591876     -2.652235     -1.035584
  C      -5.555258     -3.705932     -0.663048
  H      -6.387026     -2.252375     -2.032712
  H      -7.593214     -3.085766     -1.053742
  C      -4.203493     -3.087589     -0.383298
  H      -5.456985     -4.452678     -1.453674
  H      -5.896694     -4.241721      0.229731
  C      -4.094556     -1.708700     -0.016395
  N      -5.218192     -0.914587      0.029678
  H      -6.839112     -1.891843      0.969425
  H      -7.253137     -0.733096     -0.295023
  C      -5.147917      0.391800      0.681318
  C      -3.879557      1.125434      0.281432
  H      -5.190367      0.275997      1.774020
  H      -6.030723      0.956558      0.379589
  C      -2.654367      0.298722      0.658349
  H      -3.848048      2.098744      0.773806
  H      -3.896578      1.303130     -0.797266
  C      -2.822071     -1.152461      0.272542
  H      -2.477984      0.369086      1.737399
  H      -1.761987      0.704582      0.178981
  C      -3.065919     -3.856737     -0.462423
  C      -1.717419     -1.984840      0.189897
  C      -1.791701     -3.335926     -0.176417
  O      -0.494363     -1.432416      0.491489
  C       0.690928     -2.133334      0.450443
  C      -0.591218     -4.084820     -0.221842
  C       0.625443     -3.537583      0.080026
  O       1.698439     -1.502668      0.727155
  C       1.876032     -4.320192      0.011099
  C       2.869763     -4.247444      0.992275
  C       2.101915     -5.197250     -1.056802
  N       3.186717     -5.966982     -1.180811
  C       4.118116     -5.884961     -0.224954
  C       4.001474     -5.039799      0.873203
  H       1.370116     -5.268280     -1.855215
  H       4.782513     -5.009814      1.622024
  H       4.992156     -6.516974     -0.342237
  H       2.751327     -3.586969      1.839998
  H      -3.148715     -4.900249     -0.746229
  H      -0.656971     -5.133072     -0.492088
42
Coordinates from ORCA-job NMU-1_GS E -1033.323390606498
  C      -6.549923     -1.519090     -0.036744
  C      -6.583402     -2.651619     -1.047931
  C      -5.552423     -3.705818     -0.663074
  H      -6.368038     -2.253476     -2.043219
  H      -7.584836     -3.083780     -1.075775
  C      -4.201479     -3.088975     -0.378861
  H      -5.451882     -4.457461     -1.448333
  H      -5.901276     -4.235426      0.230273
  C      -4.095219     -1.710381     -0.007654
  N      -5.217658     -0.920263      0.039780
  H      -6.858179     -1.887222      0.951765
  H      -7.244818     -0.727882     -0.320054
  C      -5.152934      0.394140      0.676186
  C      -3.880275      1.122747      0.282618
  H      -5.208391      0.289686      1.768855
  H      -6.032243      0.954388      0.357738
  C      -2.660101      0.296699      0.675056
  H      -3.852224      2.098450      0.769868
  H      -3.887405      1.294697     -0.796833
  C      -2.823122     -1.153691      0.286357
  H      -2.496917      0.367940      1.755916
  H      -1.762075      0.702810      0.207341
  C      -3.063752     -3.855483     -0.457801
  C      -1.718617     -1.984351      0.204437
  C      -1.789551     -3.335100     -0.166962
  O      -0.497672     -1.432678      0.512075
  C       0.690714     -2.138290      0.475416
  C      -0.590688     -4.080761     -0.213927
  C       0.628203     -3.535005      0.092722
  O       1.693745     -1.498670      0.745712
  C       1.876593     -4.319756      0.015407
  C       2.890378     -4.232721      0.974999
  C       2.082418     -5.215576     -1.041513
  N       3.162033     -5.989742     -1.174018
  C       4.111634     -5.893721     -0.237265
  C       4.017526     -5.029781      0.846942
  H       1.337192     -5.298048     -1.825828
  H       4.812711     -4.988861      1.579812
  H       4.981382     -6.529752     -0.361359
  H       2.789883     -3.558296      1.813127
  H      -3.144360     -4.897761     -0.745772
  H      -0.653628     -5.127471     -0.489018
42
Coordinates from ORCA-job NMU-1_GS E -1033.323455294238
  C      -6.551483     -1.517400     -0.046861
  C      -6.576061     -2.650644     -1.057008
  C      -5.551084     -3.705747     -0.660116
  H      -6.350436     -2.254640     -2.050597
  H      -7.577747     -3.081033     -1.093856
  C      -4.200114     -3.090070     -0.374631
  H      -5.449759     -4.463192     -1.439262
  H      -5.906361     -4.227399      0.235081
  C      -4.095950     -1.712080      0.001331
  N      -5.217480     -0.925832      0.052224
  H      -6.877207     -1.881917      0.936831
  H      -7.236430     -0.722285     -0.341990
  C      -5.157162      0.395957      0.673281
  C      -3.880216      1.119365      0.285500
  H      -5.224880      0.303350      1.765857
  H      -6.032404      0.952638      0.338884
  C      -2.665109      0.293594      0.692400
  H      -3.854738      2.097418      0.767686
  H      -3.878074      1.285571     -0.794622
  C      -2.824160     -1.155753      0.298684
  H      -2.515544      0.364217      1.775041
  H      -1.761729      0.700486      0.236581
  C      -3.062334     -3.853562     -0.456542
  C      -1.719249     -1.984213      0.213566
  C      -1.788044     -3.333157     -0.164318
  O      -0.500035     -1.434299      0.522979
  C       0.692351     -2.138081      0.476892
  C      -0.589525     -4.076717     -0.213798
  C       0.631034     -3.532110      0.092938
  O       1.688381     -1.499558      0.769137
  C       1.877475     -4.319874      0.014414
  C       2.904844     -4.219042      0.957971
  C       2.070119     -5.232881     -1.030257
  N       3.145597     -6.010445     -1.163968
  C       4.107352     -5.901745     -0.241629
  C       4.028752     -5.019870      0.827902
  H       1.316734     -5.326349     -1.805220
  H       4.833469     -4.967844      1.549251
  H       4.973694     -6.541743     -0.367253
  H       2.817081     -3.530681      1.785653
  H      -3.141210     -4.894681     -0.748553
  H      -0.651037     -5.123103     -0.489146
42
Coordinates from ORCA-job NMU-1_GS E -1033.323496821041
  C      -6.552471     -1.515267     -0.051788
  C      -6.573518     -2.651850     -1.058430
  C      -5.552167     -3.707151     -0.652581
  H      -6.342055     -2.259745     -2.052270
  H      -7.575746     -3.080776     -1.098870
  C      -4.200708     -3.091707     -0.368390
  H      -5.450544     -4.469733     -1.426675
  H      -5.910908     -4.221796      0.245295
  C      -4.096538     -1.713023      0.005925
  N      -5.217941     -0.926876      0.055545
  H      -6.886785     -1.875780      0.930571
  H      -7.233468     -0.719570     -0.354673
  C      -5.158424      0.398472      0.668544
  C      -3.878675      1.118246      0.282828
  H      -5.231705      0.312981      1.761400
  H      -6.030949      0.954923      0.326517
  C      -2.666357      0.292255      0.697628
  H      -3.853552      2.098225      0.761219
  H      -3.871901      1.280041     -0.797997
  C      -2.824833     -1.157229      0.303281
  H      -2.523779      0.363472      1.781198
  H      -1.760099      0.698310      0.246814
  C      -3.063054     -3.855034     -0.450134
  C      -1.719379     -1.985500      0.218017
  C      -1.788898     -3.334053     -0.159131
  O      -0.500418     -1.436730      0.526155
  C       0.692229     -2.138176      0.480514
  C      -0.589343     -4.077531     -0.210215
  C       0.630977     -3.532864      0.093894
  O       1.688833     -1.499010      0.766903
  C       1.878164     -4.319546      0.012518
  C       2.903636     -4.224159      0.958464
  C       2.073301     -5.225955     -1.037280
  N       3.149392     -6.001734     -1.172863
  C       4.109536     -5.898860     -0.248624
  C       4.028442     -5.023397      0.826012
  H       1.321756     -5.315270     -1.814666
  H       4.831709     -4.974888      1.549300
  H       4.976257     -6.538073     -0.376359
  H       2.814212     -3.540623      1.790166
  H      -3.141799     -4.896434     -0.741481
  H      -0.651110     -5.123935     -0.485820
42
Coordinates from ORCA-job NMU-1_GS E -1033.323539775020
  C      -6.554966     -1.509204     -0.066867
  C      -6.565795     -2.654608     -1.063971
  C      -5.554987     -3.710292     -0.633104
  H      -6.317637     -2.273176     -2.058069
  H      -7.569481     -3.079244     -1.115020
  C      -4.202284     -3.096421     -0.352529
  H      -5.453107     -4.487450     -1.392568
  H      -5.923472     -4.205082      0.272096
  C      -4.098161     -1.716107      0.018930
  N      -5.218872     -0.930362      0.065687
  H      -6.914496     -1.858252      0.910805
  H      -7.223252     -0.711065     -0.391622
  C      -5.161535      0.405080      0.655893
  C      -3.873714      1.114500      0.276955
  H      -5.251312      0.339482      1.748942
  H      -6.026237      0.960063      0.291738
  C      -2.670098      0.287502      0.714504
  H      -3.849828      2.099612      0.744996
  H      -3.853210      1.264287     -0.805580
  C      -2.826456     -1.161696      0.317678
  H      -2.548096      0.359693      1.800656
  H      -1.755272      0.691386      0.279392
  C      -3.064739     -3.859308     -0.435495
  C      -1.719856     -1.989334      0.231231
  C      -1.790535     -3.337158     -0.146883
  O      -0.501293     -1.442663      0.538381
  C       0.692318     -2.139895      0.490520
  C      -0.589438     -4.079554     -0.202698
  C       0.630717     -3.534861      0.097775
  O       1.689534     -1.500860      0.772310
  C       1.879086     -4.318688      0.008520
  C       2.903961     -4.231454      0.955576
  C       2.076247     -5.213830     -1.050656
  N       3.153910     -5.985730     -1.192543
  C       4.113948     -5.891598     -0.267539
  C       4.030693     -5.027034      0.816068
  H       1.325309     -5.297029     -1.829583
  H       4.833328     -4.983566      1.540558
  H       4.981594     -6.528520     -0.401277
  H       2.813365     -3.556362      1.794380
  H      -3.143243     -4.901044     -0.726197
  H      -0.651322     -5.125507     -0.480930
42
Coordinates from ORCA-job NMU-1_GS E -1033.323551160882
  C      -6.556163     -1.505617     -0.075748
  C      -6.561604     -2.656464     -1.066753
  C      -5.556684     -3.711878     -0.621618
  H      -6.304246     -2.281657     -2.061084
  H      -7.566088     -3.078577     -1.123323
  C      -4.203279     -3.099115     -0.343995
  H      -5.455245     -4.497884     -1.371982
  H      -5.930143     -4.194710      0.288113
  C      -4.098987     -1.718011      0.025826
  N      -5.219198     -0.932237      0.070984
  H      -6.930069     -1.847339      0.899104
  H      -7.216634     -0.706033     -0.413087
  C      -5.162705      0.408670      0.648764
  C      -3.870461      1.112336      0.273695
  H      -5.261503      0.353895      1.741587
  H      -6.023065      0.962540      0.272574
  C      -2.672028      0.284592      0.723809
  H      -3.847251      2.100158      0.736088
  H      -3.842289      1.255559     -0.809622
  C      -2.827155     -1.164204      0.325631
  H      -2.561772      0.356999      1.811298
  H      -1.752312      0.687236      0.298092
  C      -3.065720     -3.861919     -0.428445
  C      -1.720327     -1.991651      0.238363
  C      -1.791271     -3.339340     -0.141166
  O      -0.501604     -1.445288      0.545880
  C       0.692058     -2.141590      0.495702
  C      -0.589883     -4.080946     -0.199756
  C       0.630294     -3.536110      0.100304
  O       1.689806     -1.503180      0.778006
  C       1.879287     -4.318216      0.006796
  C       2.904017     -4.234973      0.954357
  C       2.077227     -5.207403     -1.057411
  N       3.156203     -5.976978     -1.203793
  C       4.116340     -5.886550     -0.278343
  C       4.031935     -5.028219      0.810399
  H       1.325980     -5.287333     -1.836406
  H       4.834414     -4.987553      1.535273
  H       4.984963     -6.521385     -0.415747
  H       2.812584     -3.564845      1.797104
  H      -3.144405     -4.903729     -0.718849
  H      -0.651702     -5.126402     -0.480160
42
Coordinates from ORCA-job NMU-1_GS E -1033.323557150935
  C      -6.556977     -1.502440     -0.083223
  C      -6.558520     -2.658561     -1.068155
  C      -5.558165     -3.713183     -0.611070
  H      -6.294001     -2.290092     -2.062996
  H      -7.563679     -3.078519     -1.128443
  C      -4.204117     -3.101246     -0.337236
  H      -5.457724     -4.507316     -1.352927
  H      -5.934908     -4.185199      0.303099
  C      -4.099480     -1.719645      0.030824
  N      -5.219234     -0.933611      0.074721
  H      -6.942739     -1.837011      0.889431
  H      -7.210603     -0.701749     -0.431387
  C      -5.163096      0.411420      0.643085
  C      -3.867524      1.110645      0.270874
  H      -5.268555      0.364838      1.735576
  H      -6.020195      0.964290      0.257948
  C      -2.673285      0.282206      0.730627
  H      -3.844835      2.100498      0.728915
  H      -3.833476      1.248776     -0.812964
  C      -2.827426     -1.166118      0.331362
  H      -2.572579      0.354382      1.819137
  H      -1.749620      0.683915      0.312876
  C      -3.066510     -3.864068     -0.423597
  C      -1.720856     -1.993626      0.243231
  C      -1.791710     -3.341334     -0.137741
  O      -0.501595     -1.446839      0.551559
  C       0.691369     -2.143447      0.498889
  C      -0.590414     -4.082392     -0.198634
  C       0.629704     -3.537219      0.101964
  O       1.690002     -1.506072      0.782924
  C       1.879380     -4.317756      0.005422
  C       2.902868     -4.238681      0.954731
  C       2.078899     -5.200717     -1.063659
  N       3.159296     -5.968234     -1.214094
  C       4.118402     -5.881278     -0.287024
  C       4.031921     -5.029669      0.807051
  H       1.327650     -5.277121     -1.842950
  H       4.833589     -4.992456      1.532995
  H       4.988333     -6.513659     -0.427412
  H       2.809578     -3.573852      1.801469
  H      -3.145711     -4.905917     -0.713565
  H      -0.652134     -5.127292     -0.481172
42
Coordinates from ORCA-job NMU-1_GS E -1033.323558521300
  C      -6.556990     -1.501899     -0.084206
  C      -6.558458     -2.659243     -1.067661
  C      -5.558294     -3.713385     -0.609150
  H      -6.293541     -2.292135     -2.062887
  H      -7.563715     -3.078943     -1.127648
  C      -4.204129     -3.101340     -0.336739
  H      -5.458372     -4.509047     -1.349397
  H      -5.934736     -4.183583      0.306099
  C      -4.099374     -1.719816      0.030787
  N      -5.219044     -0.933633      0.074575
  H      -6.944048     -1.834822      0.888462
  H      -7.209659     -0.701140     -0.434013
  C      -5.162823      0.411444      0.642899
  C      -3.867244      1.110600      0.270629
  H      -5.268209      0.364866      1.735360
  H      -6.019975      0.964224      0.257810
  C      -2.673178      0.282086      0.730610
  H      -3.844617      2.100474      0.728578
  H      -3.833083      1.248588     -0.813206
  C      -2.827204     -1.166119      0.331198
  H      -2.573174      0.353885      1.819215
  H      -1.749219      0.683853      0.313673
  C      -3.066486     -3.864150     -0.423707
  C      -1.720993     -1.993783      0.242810
  C      -1.791562     -3.341519     -0.138333
  O      -0.501373     -1.446507      0.551380
  C       0.690963     -2.143765      0.498162
  C      -0.590438     -4.082673     -0.199428
  C       0.629570     -3.537257      0.101535
  O       1.690025     -1.506802      0.782764
  C       1.879450     -4.317628      0.005154
  C       2.901794     -4.239813      0.955824
  C       2.079932     -5.198905     -1.064945
  N       3.160615     -5.966202     -1.215814
  C       4.118613     -5.880191     -0.287532
  C       4.030996     -5.030481      0.807918
  H       1.329082     -5.274142     -1.844699
  H       4.831984     -4.994644      1.534645
  H       4.988954     -6.511979     -0.428023
  H       2.807377     -3.576358      1.803493
  H      -3.145988     -4.906004     -0.713481
  H      -0.652109     -5.127461     -0.482250
42
Coordinates from ORCA-job NMU-1_GS E -1033.323559016574
  C      -6.556900     -1.501750     -0.084475
  C      -6.558611     -2.659523     -1.067378
  C      -5.558198     -3.713399     -0.608906
  H      -6.294088     -2.292834     -2.062853
  H      -7.563868     -3.079265     -1.126801
  C      -4.204012     -3.101163     -0.337027
  H      -5.458499     -4.509354     -1.348843
  H      -5.934171     -4.183372      0.306645
  C      -4.099273     -1.719738      0.030256
  N      -5.218889     -0.933474      0.073890
  H      -6.943804     -1.834079      0.888443
  H      -7.209482     -0.701061     -0.434570
  C      -5.162650      0.411024      0.643572
  C      -3.867508      1.110765      0.270976
  H      -5.267134      0.363222      1.736056
  H      -6.020278      0.963878      0.259725
  C      -2.673014      0.282320      0.729894
  H      -3.844876      2.100375      0.729466
  H      -3.834010      1.249362     -0.812785
  C      -2.827044     -1.165885      0.330522
  H      -2.572281      0.353898      1.818438
  H      -1.749356      0.684275      0.312515
  C      -3.066357     -3.863932     -0.424061
  C      -1.721072     -1.993661      0.242088
  C      -1.791389     -3.341376     -0.138898
  O      -0.501252     -1.446111      0.550600
  C       0.690739     -2.143685      0.497355
  C      -0.590335     -4.082682     -0.199872
  C       0.629593     -3.537093      0.101052
  O       1.689980     -1.506828      0.781870
  C       1.879527     -4.317584      0.005077
  C       2.901327     -4.240108      0.956368
  C       2.080379     -5.198469     -1.065103
  N       3.161002     -5.965921     -1.215769
  C       4.118426     -5.880213     -0.286960
  C       4.030427     -5.030904      0.808720
  H       1.329792     -5.273296     -1.845142
  H       4.831159     -4.995625      1.535735
  H       4.988825     -6.511986     -0.427164
  H       2.806456     -3.576825      1.804109
  H      -3.146000     -4.905794     -0.713746
  H      -0.651962     -5.127480     -0.482559
