! B3LYP/G OPT FREQ 6-311G* CPCM(Water)

%tddft
    NRoots 3
    IRoot 1
end 

* xyz 0 1 
C  -3.18242921420300728386 -0.60959024614772738815 -0.45214383816838443764
C  -2.68401153932855063289 -1.69150722546884058062 -1.17544888140915748664
C  -1.33833918745468283262 -1.79567972791638252872 -1.41110855265750045895
C  -2.32924168827839173090 0.35571887647971434099 0.03705485095563831877
C  -0.93713794559481733426 0.28485426981392980572 -0.19580983605881729925
O  -2.82738601832599378838 1.44807124405659726207 0.72194219468977838261
C  -0.44859966139613938196 -0.82037823029805601038 -0.93358493714983259437
C  0.94944108987521969034 -0.94722573061256554183 -1.18088734858151012119
C  1.83222110116333225527 -0.03494616365571223682 -0.71711864283009885135
C  0.00060585682237968008 1.26932592205442262845 0.28392351520169240020
C  1.38366705430454106640 1.09145379435262790402 0.02560288802298105182
N  -0.44698806679870606295 2.33611600609268954543 0.96302454330466913390
C  0.41097264709996839116 3.22061270653957887333 1.40966863174875767228
C  1.79264714414419867872 3.13173270887632604342 1.22060161479310869126
C  2.27693932172915047829 2.05696655806406569766 0.51709894219014029826
C  -3.67864077016141166609 1.26850860545051480344 1.76266480524833135668
O  -4.04562466971418110973 0.16839804632180332966 2.15455571137362777989
N  -4.04923901345476000557 2.42920264537170993435 2.30925210582896545120
C  -5.00721736117357796303 2.45098129143520759854 3.39200096768906966815
C  -3.57058717409049730662 3.71530742303269345683 1.84988229015689120693
H  -4.31442462146782990118 4.19091351042458892806 1.20811095481485875069
H  -2.64380462023206597166 3.58133895310509320353 1.29883290757590175168
H  -3.39178822571516924711 4.34627310625726792637 2.71878111425922597277
H  -5.31711449047322481931 1.43037922223307356617 3.60627294623135519203
H  -5.87505432921247106037 3.04422057761557063316 3.10257861452460925733
H  -4.55273392159281709013 2.88596934017064832290 4.28253543114068868647
H  -0.94241583899219738552 -2.63115192412242349107 -1.96720812919462395563
H  -4.24059600204830111636 -0.52423973417050651058 -0.25891885480463627811
H  -3.36876285684505960560 -2.43791287409286239196 -1.54533282258097748318
H  1.28351420201211152694 -1.80204970314123569253 -1.74858610786598700493
H  2.89172022432389130842 -0.13635134779372726221 -0.89887872434372106945
H  -0.02292274570719499138 4.05242659884339850862 1.94874495423721416643
H  2.44690625689625917971 3.89223892928653425471 1.61473902475615815888
H  3.33458507121432123910 1.93785257869217142357 0.33153766651245142327
*
