34
Coordinates from ORCA-job 4 E -878.190125490704
  C          -3.14055345832086     -0.68296215117161     -0.19199067700246
  C          -2.70094246262084     -1.71573754343083     -1.02558809503492
  C          -1.37460735235419     -1.73922799097439     -1.43929084671835
  C          -2.24531346256425      0.31013333311193      0.24130774081586
  C          -0.85114905430527      0.28435282361221     -0.08641460999282
  O          -2.73527071640802      1.40726281674104      0.87906916803969
  C          -0.43957739244399     -0.75796159714917     -1.00850946613615
  C           0.88823681908536     -0.80811042789662     -1.45296120700120
  C           1.82141731279961      0.13116613244083     -1.01036408322904
  C           0.13710145507032      1.17090357024532      0.47314326663847
  C           1.49125442171804      1.10520595137636     -0.04628730034316
  N          -0.19182373457248      2.04080177707298      1.46616865307175
  C           0.74680939986462      2.91382361267835      1.89340147095137
  C           2.04494933690776      2.97985241587852      1.39428217246517
  C           2.44107968627910      2.04888363880530      0.42823421258626
  C          -3.63793767899225      1.29123131979624      1.93509440029515
  O          -3.84874827846842      0.23254416916215      2.49197217686539
  N          -4.16257850046621      2.49156262808839      2.24429098855816
  C          -5.14512361264338      2.57417903405097      3.32095091665499
  C          -3.93374196707844      3.72128497692391      1.48732940684141
  H          -4.80281908648427      3.95412694128122      0.86429720763915
  H          -3.05623841342566      3.62544626427168      0.85775465134853
  H          -3.77990322692612      4.54246899837518      2.19007041519460
  H          -5.19108222255966      1.62561654656309      3.84701856798567
  H          -6.13325224336048      2.80973256967938      2.91431079641093
  H          -4.85705208080253      3.36370965347697      4.01855339616242
  H          -1.02704140350658     -2.52080272238532     -2.10662337963616
  H          -4.18471152495970     -0.60169843621233      0.07716965166371
  H          -3.39966702561795     -2.46721549281554     -1.37293419169725
  H           1.18583359654218     -1.58357578285760     -2.15051852601918
  H           2.83317471716665      0.10900948740541     -1.40350541167793
  H           0.43930801955516      3.57158060745086      2.70292740952206
  H           2.74148077289667      3.70958374729938      1.79291541254079
  H           3.45664936832050      2.02065913625588      0.04910571184794
