34
Coordinates from ORCA-job 4 E -878.177744364976
  C      -3.182429     -0.609590     -0.452144
  C      -2.684012     -1.691507     -1.175449
  C      -1.338339     -1.795680     -1.411109
  C      -2.329242      0.355719      0.037055
  C      -0.937138      0.284854     -0.195810
  O      -2.827386      1.448071      0.721942
  C      -0.448600     -0.820378     -0.933585
  C       0.949441     -0.947226     -1.180887
  C       1.832221     -0.034946     -0.717119
  C       0.000606      1.269326      0.283924
  C       1.383667      1.091454      0.025603
  N      -0.446988      2.336116      0.963025
  C       0.410973      3.220613      1.409669
  C       1.792647      3.131733      1.220602
  C       2.276939      2.056967      0.517099
  C      -3.678641      1.268509      1.762665
  O      -4.045625      0.168398      2.154556
  N      -4.049239      2.429203      2.309252
  C      -5.007217      2.450981      3.392001
  C      -3.570587      3.715307      1.849882
  H      -4.314425      4.190914      1.208111
  H      -2.643805      3.581339      1.298833
  H      -3.391788      4.346273      2.718781
  H      -5.317114      1.430379      3.606273
  H      -5.875054      3.044221      3.102579
  H      -4.552734      2.885969      4.282535
  H      -0.942416     -2.631152     -1.967208
  H      -4.240596     -0.524240     -0.258919
  H      -3.368763     -2.437913     -1.545333
  H       1.283514     -1.802050     -1.748586
  H       2.891720     -0.136351     -0.898879
  H      -0.022923      4.052427      1.948745
  H       2.446906      3.892239      1.614739
  H       3.334585      1.937853      0.331538
34
Coordinates from ORCA-job 4 E -878.187382126517
  C      -3.189827     -0.609744     -0.399242
  C      -2.706690     -1.684112     -1.153200
  C      -1.350736     -1.779245     -1.413683
  C      -2.320502      0.365193      0.091176
  C      -0.906832      0.318846     -0.160567
  O      -2.855561      1.437331      0.764504
  C      -0.442369     -0.805007     -0.936875
  C       0.935758     -0.950633     -1.217928
  C       1.859288     -0.037193     -0.764740
  C       0.068135      1.285510      0.320289
  C       1.460712      1.082841      0.011071
  N      -0.316679      2.373460      1.041282
  C       0.600798      3.248415      1.461697
  C       1.969467      3.134440      1.201741
  C       2.403645      2.032967      0.469714
  C      -3.722212      1.243876      1.806527
  O      -4.042016      0.136893      2.218083
  N      -4.147111      2.418323      2.312679
  C      -5.126230      2.431325      3.389715
  C      -3.717470      3.720695      1.810361
  H      -4.475865      4.150062      1.147277
  H      -2.779760      3.617755      1.272192
  H      -3.573737      4.391516      2.659292
  H      -5.399029      1.410214      3.639183
  H      -6.018181      2.978848      3.073229
  H      -4.705216      2.919007      4.272957
  H      -0.962483     -2.609921     -1.993198
  H      -4.248112     -0.520669     -0.198120
  H      -3.400052     -2.426545     -1.529861
  H       1.244432     -1.807901     -1.806946
  H       2.914021     -0.149921     -0.993793
  H       0.221949      4.079182      2.054918
  H       2.662251      3.876321      1.582404
  H       3.454373      1.885703      0.242244
34
Coordinates from ORCA-job 4 E -878.188959383854
  C      -3.191612     -0.639504     -0.388499
  C      -2.713718     -1.702768     -1.164219
  C      -1.352234     -1.783075     -1.437896
  C      -2.315365      0.338109      0.109711
  C      -0.903019      0.310924     -0.150985
  O      -2.845186      1.407480      0.779934
  C      -0.440220     -0.807994     -0.954265
  C       0.927894     -0.939957     -1.247887
  C       1.854072     -0.011152     -0.787187
  C       0.057815      1.269890      0.343404
  C       1.458132      1.087296      0.013347
  N      -0.338368      2.333990      1.101699
  C       0.588963      3.213413      1.527874
  C       1.951520      3.129950      1.236989
  C       2.398003      2.041550      0.475924
  C      -3.705878      1.234436      1.843779
  O      -4.004476      0.139414      2.290254
  N      -4.132588      2.428092      2.309066
  C      -5.104753      2.468674      3.396116
  C      -3.721963      3.718389      1.751181
  H      -4.492225      4.117345      1.082745
  H      -2.788688      3.610604      1.207526
  H      -3.576734      4.422905      2.572648
  H      -5.365782      1.456337      3.688683
  H      -6.006424      2.994792      3.069307
  H      -4.683402      2.996553      4.256292
  H      -0.963724     -2.601069     -2.036234
  H      -4.249529     -0.547217     -0.187383
  H      -3.405857     -2.441353     -1.551819
  H       1.244149     -1.785524     -1.850672
  H       2.905778     -0.109380     -1.039869
  H       0.216398      4.021471      2.155156
  H       2.638995      3.874475      1.624492
  H       3.448184      1.910735      0.235168
34
Coordinates from ORCA-job 4 E -878.189325043473
  C      -3.180530     -0.645158     -0.343706
  C      -2.715751     -1.704680     -1.129777
  C      -1.359073     -1.774248     -1.431468
  C      -2.298129      0.339123      0.135870
  C      -0.889489      0.316471     -0.138195
  O      -2.824734      1.406850      0.801236
  C      -0.439224     -0.798781     -0.960177
  C       0.919347     -0.923958     -1.279792
  C       1.851154      0.010158     -0.826712
  C       0.073296      1.262590      0.361046
  C       1.470468      1.091918     -0.003192
  N      -0.314133      2.302302      1.157235
  C       0.626036      3.176964      1.577085
  C       1.977218      3.112487      1.247474
  C       2.416634      2.041603      0.454608
  C      -3.702614      1.236404      1.859189
  O      -3.994155      0.143402      2.306612
  N      -4.145305      2.432659      2.299688
  C      -5.136379      2.474972      3.369700
  C      -3.745780      3.719227      1.727693
  H      -4.512259      4.096605      1.043309
  H      -2.802763      3.618695      1.200643
  H      -3.623826      4.437613      2.540684
  H      -5.388442      1.463840      3.674342
  H      -6.039829      2.982911      3.020423
  H      -4.738172      3.023266      4.227802
  H      -0.978395     -2.586613     -2.041473
  H      -4.235439     -0.550693     -0.125537
  H      -3.409797     -2.445212     -1.508188
  H       1.234610     -1.760966     -1.893756
  H       2.895501     -0.081832     -1.108701
  H       0.268237      3.965375      2.235707
  H       2.668055      3.854009      1.633411
  H       3.461826      1.920524      0.191297
34
Coordinates from ORCA-job 4 E -878.189580314773
  C      -3.167245     -0.656881     -0.300638
  C      -2.712948     -1.708057     -1.100889
  C      -1.364398     -1.762155     -1.433773
  C      -2.281749      0.331421      0.167480
  C      -0.877330      0.312904     -0.121452
  O      -2.804805      1.403463      0.823291
  C      -0.439490     -0.786319     -0.972730
  C       0.909684     -0.893967     -1.328390
  C       1.843245      0.042732     -0.879218
  C       0.090033      1.242061      0.392482
  C       1.478731      1.096127     -0.017252
  N      -0.284083      2.239002      1.246385
  C       0.664084      3.107891      1.665465
  C       2.000437      3.074987      1.287113
  C       2.429552      2.039508      0.443361
  C      -3.688838      1.246924      1.886474
  O      -3.942166      0.164074      2.374133
  N      -4.156088      2.446856      2.283509
  C      -5.141640      2.501828      3.357800
  C      -3.804306      3.719565      1.655855
  H      -4.590205      4.043782      0.966820
  H      -2.864222      3.629180      1.122584
  H      -3.697691      4.473133      2.438344
  H      -5.358893      1.496868      3.706692
  H      -6.063186      2.964879      2.994139
  H      -4.757202      3.099270      4.188611
  H      -0.991345     -2.563273     -2.062585
  H      -4.218640     -0.562235     -0.067564
  H      -3.407486     -2.450485     -1.473501
  H       1.224928     -1.713748     -1.964368
  H       2.878076     -0.035251     -1.197196
  H       0.321401      3.863688      2.368366
  H       2.694082      3.811555      1.676680
  H       3.467862      1.938502      0.148353
34
Coordinates from ORCA-job 4 E -878.189802063571
  C      -3.142453     -0.661481     -0.216867
  C      -2.710464     -1.701033     -1.041485
  C      -1.379753     -1.732633     -1.434646
  C      -2.248146      0.331102      0.225308
  C      -0.852185      0.308935     -0.092708
  O      -2.756904      1.415550      0.866324
  C      -0.443176     -0.757747     -0.995563
  C       0.888140     -0.834139     -1.418224
  C       1.827737      0.100384     -0.975455
  C       0.132373      1.202575      0.446664
  C       1.498689      1.101179     -0.042830
  N      -0.205811      2.115447      1.400995
  C       0.754216      2.971591      1.822089
  C       2.061905      2.994445      1.361024
  C       2.461145      2.029514      0.425930
  C      -3.633916      1.283058      1.948809
  O      -3.817235      0.221409      2.504663
  N      -4.176144      2.474860      2.256214
  C      -5.159527      2.541327      3.332001
  C      -3.938996      3.713592      1.519625
  H      -4.758895      3.913530      0.823442
  H      -3.003167      3.659055      0.975543
  H      -3.884844      4.535045      2.236036
  H      -5.290927      1.556122      3.768946
  H      -6.117768      2.892796      2.939501
  H      -4.823560      3.239312      4.102869
  H      -1.025999     -2.516428     -2.095450
  H      -4.186580     -0.566110      0.047346
  H      -3.409611     -2.446790     -1.397896
  H       1.194605     -1.622023     -2.096749
  H       2.843461      0.047695     -1.354238
  H       0.443490      3.664345      2.600654
  H       2.764463      3.717897      1.758876
  H       3.483999      1.965449      0.073632
34
Coordinates from ORCA-job 4 E -878.189953857644
  C      -3.144087     -0.666639     -0.220065
  C      -2.707500     -1.708041     -1.041575
  C      -1.376498     -1.738944     -1.435493
  C      -2.251541      0.327115      0.219528
  C      -0.854889      0.300698     -0.094731
  O      -2.758627      1.416103      0.856783
  C      -0.442449     -0.761056     -0.998062
  C       0.890748     -0.831152     -1.421736
  C       1.826685      0.104245     -0.977896
  C       0.129324      1.195282      0.450391
  C       1.493566      1.102039     -0.040724
  N      -0.211422      2.102668      1.408591
  C       0.740333      2.964303      1.832627
  C       2.049425      2.994287      1.369513
  C       2.451137      2.035160      0.430877
  C      -3.639330      1.284570      1.934008
  O      -3.820868      0.222716      2.492497
  N      -4.171712      2.478158      2.251341
  C      -5.143632      2.549023      3.337792
  C      -3.934975      3.717405      1.514264
  H      -4.762197      3.924091      0.828535
  H      -3.007036      3.657593      0.956330
  H      -3.865155      4.537436      2.231025
  H      -5.273269      1.564571      3.776786
  H      -6.104902      2.903109      2.954956
  H      -4.796484      3.246204      4.104480
  H      -1.021246     -2.524168     -2.094159
  H      -4.189007     -0.573965      0.043814
  H      -3.405219     -2.457444     -1.394065
  H       1.197961     -1.617237     -2.102485
  H       2.843297      0.056970     -1.355635
  H       0.424941      3.653282      2.612976
  H       2.748961      3.720675      1.768042
  H       3.473825      1.978773      0.075850
34
Coordinates from ORCA-job 4 E -878.190049892291
  C      -3.144901     -0.673429     -0.212666
  C      -2.704701     -1.714811     -1.034767
  C      -1.374292     -1.744629     -1.434783
  C      -2.251923      0.319964      0.223792
  C      -0.855586      0.289714     -0.093024
  O      -2.752645      1.416028      0.857363
  C      -0.441761     -0.763233     -1.001550
  C       0.891219     -0.823029     -1.432816
  C       1.824374      0.113578     -0.989942
  C       0.130341      1.184444      0.457785
  C       1.489737      1.103729     -0.042051
  N      -0.208243      2.078970      1.428181
  C       0.733519      2.948153      1.854292
  C       2.041137      2.992292      1.378898
  C       2.442081      2.043430      0.431132
  C      -3.635913      1.288847      1.929280
  O      -3.830783      0.224937      2.482662
  N      -4.165946      2.483265      2.248201
  C      -5.138039      2.558665      3.334997
  C      -3.928858      3.720779      1.506250
  H      -4.760539      3.929452      0.826237
  H      -3.006976      3.655222      0.938048
  H      -3.847673      4.542772      2.219606
  H      -5.262122      1.577138      3.781966
  H      -6.101420      2.904919      2.950120
  H      -4.791937      3.263155      4.095409
  H      -1.020426     -2.530325     -2.094007
  H      -4.189964     -0.585036      0.052334
  H      -3.402351     -2.467380     -1.381766
  H       1.194795     -1.605260     -2.120237
  H       2.840342      0.076876     -1.371202
  H       0.417070      3.626906      2.643224
  H       2.738134      3.721825      1.776993
  H       3.462408      1.999902      0.066421
34
Coordinates from ORCA-job 4 E -878.190067376783
  C      -3.142570     -0.679698     -0.200913
  C      -2.702437     -1.718073     -1.027268
  C      -1.374530     -1.742720     -1.437142
  C      -2.249247      0.315586      0.231032
  C      -0.853919      0.286145     -0.090152
  O      -2.747079      1.415615      0.859420
  C      -0.441779     -0.759555     -1.007265
  C       0.887919     -0.810578     -1.448428
  C       1.820324      0.127743     -1.005510
  C       0.133808      1.174470      0.468308
  C       1.489073      1.105779     -0.044226
  N      -0.198635      2.048888      1.458252
  C       0.741065      2.919248      1.887304
  C       2.042595      2.979974      1.395911
  C       2.440116      2.046110      0.432292
  C      -3.628777      1.295483      1.933408
  O      -3.813308      0.237442      2.501315
  N      -4.164888      2.490335      2.241132
  C      -5.129629      2.572416      3.334139
  C      -3.947589      3.719234      1.478550
  H      -4.790771      3.911900      0.808069
  H      -3.034590      3.652946      0.896810
  H      -3.861711      4.552072      2.178631
  H      -5.234731      1.598242      3.801554
  H      -6.101406      2.896053      2.950639
  H      -4.787765      3.297296      4.076985
  H      -1.023356     -2.525866     -2.100789
  H      -4.187122     -0.594176      0.066617
  H      -3.399856     -2.472104     -1.371624
  H       1.188900     -1.586878     -2.143710
  H       2.833325      0.100729     -1.395329
  H       0.430307      3.581573      2.692070
  H       2.739223      3.708380      1.796798
  H       3.457202      2.013819      0.057499
34
Coordinates from ORCA-job 4 E -878.190080271531
  C      -3.144041     -0.684206     -0.202841
  C      -2.701255     -1.721454     -1.029452
  C      -1.372590     -1.746023     -1.437805
  C      -2.251237      0.311435      0.229837
  C      -0.855770      0.284277     -0.091408
  O      -2.748046      1.411297      0.859274
  C      -0.440543     -0.762109     -1.007240
  C       0.889447     -0.812812     -1.445773
  C       1.820725      0.127923     -1.003110
  C       0.130048      1.173635      0.467920
  C       1.486324      1.106258     -0.043793
  N      -0.204151      2.048411      1.456399
  C       0.732794      2.922566      1.884575
  C       2.034010      2.986261      1.392141
  C       2.434410      2.050581      0.431557
  C      -3.632563      1.292530      1.929770
  O      -3.828852      0.233468      2.491865
  N      -4.160766      2.490280      2.242581
  C      -5.128105      2.573826      3.333017
  C      -3.933020      3.721362      1.486397
  H      -4.776372      3.926316      0.819754
  H      -3.022915      3.648689      0.901236
  H      -3.836226      4.549624      2.190520
  H      -5.235060      1.600082      3.800891
  H      -6.098866      2.898179      2.947441
  H      -4.786727      3.299009      4.075759
  H      -1.021202     -2.529982     -2.100308
  H      -4.189265     -0.601043      0.062082
  H      -3.398335     -2.475247     -1.375030
  H       1.189804     -1.590697     -2.139556
  H       2.834462      0.103995     -1.391045
  H       0.421545      3.584108      2.689603
  H       2.728788      3.717007      1.791940
  H       3.451712      2.020282      0.057183
34
Coordinates from ORCA-job 4 E -878.190097785067
  C      -3.143140     -0.687721     -0.198618
  C      -2.699737     -1.723329     -1.026787
  C      -1.372069     -1.746322     -1.437393
  C      -2.250594      0.308482      0.232836
  C      -0.855700      0.283361     -0.090221
  O      -2.746242      1.408134      0.863309
  C      -0.439901     -0.761967     -1.007844
  C       0.889143     -0.811024     -1.448228
  C       1.819854      0.131488     -1.006388
  C       0.129722      1.171648      0.470220
  C       1.485410      1.107431     -0.045556
  N      -0.203106      2.042571      1.461696
  C       0.733009      2.918380      1.888779
  C       2.031880      2.986757      1.391659
  C       2.432122      2.053862      0.428745
  C      -3.634954      1.291345      1.930177
  O      -3.839395      0.232449      2.489315
  N      -4.159322      2.491063      2.242687
  C      -5.131656      2.576331      3.328265
  C      -3.925629      3.721811      1.488485
  H      -4.770341      3.933957      0.825816
  H      -3.018392      3.643618      0.899528
  H      -3.820262      4.548105      2.193745
  H      -5.235203      1.605188      3.802234
  H      -6.102848      2.892986      2.937187
  H      -4.796893      3.308389      4.067171
  H      -1.021870     -2.529936     -2.100884
  H      -4.188385     -0.606728      0.066676
  H      -3.396705     -2.477117     -1.372573
  H       1.188654     -1.588716     -2.142512
  H       2.832797      0.111124     -1.396434
  H       0.423494      3.576685      2.697022
  H       2.725865      3.718795      1.790381
  H       3.448555      2.026733      0.051885
34
Coordinates from ORCA-job 4 E -878.190104531831
  C      -3.142249     -0.689672     -0.195409
  C      -2.698630     -1.724040     -1.024981
  C      -1.371862     -1.745920     -1.437234
  C      -2.249807      0.306583      0.235353
  C      -0.855413      0.282763     -0.089273
  O      -2.744170      1.405729      0.867407
  C      -0.439490     -0.761426     -1.008476
  C       0.888913     -0.809422     -1.450530
  C       1.819281      0.133753     -1.008933
  C       0.129916      1.170536      0.471724
  C       1.485156      1.108033     -0.046883
  N      -0.201663      2.038830      1.465063
  C       0.733985      2.915306      1.891659
  C       2.031471      2.986162      1.391821
  C       2.431253      2.055562      0.426956
  C      -3.637058      1.290375      1.930799
  O      -3.846782      0.231850      2.488380
  N      -4.158546      2.491603      2.242908
  C      -5.135117      2.577950      3.324490
  C      -3.921215      3.722112      1.489940
  H      -4.768947      3.941042      0.833343
  H      -3.018335      3.638783      0.895064
  H      -3.806033      4.546506      2.196014
  H      -5.231892      1.610224      3.806805
  H      -6.108055      2.883091      2.928330
  H      -4.808514      3.319357      4.057605
  H      -1.022620     -2.529193     -2.101680
  H      -4.187323     -0.610299      0.070750
  H      -3.395500     -2.477893     -1.370936
  H       1.188079     -1.586833     -2.145207
  H       2.831606      0.115405     -1.400680
  H       0.425397      3.571757      2.701769
  H       2.725142      3.718921      1.789846
  H       3.447182      2.030293      0.048577
34
Coordinates from ORCA-job 4 E -878.190112129326
  C      -3.140744     -0.691004     -0.190047
  C      -2.697854     -1.723581     -1.022307
  C      -1.372328     -1.744133     -1.437313
  C      -2.247779      0.304622      0.240342
  C      -0.854042      0.281765     -0.086975
  O      -2.739807      1.403134      0.874902
  C      -0.439197     -0.760042     -1.009272
  C       0.888140     -0.806438     -1.454742
  C       1.818517      0.136805     -1.013406
  C       0.131994      1.168728      0.474476
  C       1.486014      1.108518     -0.048635
  N      -0.197201      2.033487      1.470791
  C       0.738341      2.910192      1.896919
  C       2.034090      2.983674      1.393231
  C       2.432179      2.056563      0.424850
  C      -3.639033      1.289678      1.933301
  O      -3.853873      0.231830      2.489995
  N      -4.158675      2.492334      2.243138
  C      -5.141269      2.579853      3.319109
  C      -3.919302      3.721847      1.489610
  H      -4.773008      3.948557      0.843454
  H      -3.024204      3.631537      0.884184
  H      -3.789433      4.544563      2.195257
  H      -5.223769      1.618867      3.817284
  H      -6.118019      2.862295      2.915185
  H      -4.829515      3.338682      4.040573
  H      -1.024606     -2.526353     -2.103848
  H      -4.185351     -0.613035      0.078144
  H      -3.394883     -2.477222     -1.368462
  H       1.186713     -1.582524     -2.151115
  H       2.829705      0.120344     -1.408224
  H       0.431178      3.564154      2.709608
  H       2.727991      3.716641      1.790534
  H       3.447190      2.033492      0.043842
34
Coordinates from ORCA-job 4 E -878.190115948354
  C      -3.139868     -0.690074     -0.187276
  C      -2.698172     -1.721807     -1.021293
  C      -1.373149     -1.742077     -1.437749
  C      -2.246109      0.304783      0.243327
  C      -0.852620      0.281799     -0.085730
  O      -2.736296      1.402617      0.880082
  C      -0.439232     -0.758672     -1.009703
  C       0.887559     -0.804757     -1.457151
  C       1.818541      0.137564     -1.015655
  C       0.134376      1.168413      0.475500
  C       1.487678      1.108243     -0.049251
  N      -0.193338      2.032077      1.473037
  C       0.742911      2.907828      1.899546
  C       2.038318      2.981071      1.394753
  C       2.434848      2.055357      0.424537
  C      -3.639801      1.289742      1.935308
  O      -3.855892      0.232208      2.492050
  N      -4.159768      2.492620      2.243392
  C      -5.145563      2.579831      3.316527
  C      -3.921908      3.721511      1.488364
  H      -4.782054      3.953244      0.852614
  H      -3.034685      3.626479      0.872286
  H      -3.779466      4.543216      2.192877
  H      -5.212558      1.625417      3.829494
  H      -6.126702      2.839778      2.907885
  H      -4.847019      3.354670      4.026288
  H      -1.026194     -2.523551     -2.105589
  H      -4.184019     -0.612153      0.082627
  H      -3.395536     -2.475112     -1.367526
  H       1.185769     -1.579684     -2.154970
  H       2.829164      0.120673     -1.411985
  H       0.436400      3.561038      2.713101
  H       2.733091      3.713152      1.792235
  H       3.449453      2.032385      0.042429
34
Coordinates from ORCA-job 4 E -878.190126923465
  C      -3.139923     -0.686142     -0.188318
  C      -2.699740     -1.718082     -1.022837
  C      -1.374288     -1.739846     -1.438508
  C      -2.245059      0.307538      0.243523
  C      -0.851353      0.283136     -0.085713
  O      -2.734255      1.404635      0.881949
  C      -0.439459     -0.757727     -1.009314
  C       0.887634     -0.805806     -1.456092
  C       1.819920      0.134635     -1.014004
  C       0.136650      1.169636      0.474625
  C       1.490099      1.106626     -0.048189
  N      -0.191045      2.036117      1.470073
  C       0.746516      2.910246      1.897079
  C       2.043247      2.979626      1.394761
  C       2.438985      2.051787      0.426023
  C      -3.639055      1.290398      1.936327
  O      -3.852890      0.232434      2.493266
  N      -4.161583      2.492057      2.244070
  C      -5.147498      2.576834      3.317399
  C      -3.928240      3.721190      1.487765
  H      -4.794094      3.954701      0.860498
  H      -3.047429      3.624647      0.862912
  H      -3.777557      4.542387      2.191197
  H      -5.200446      1.627154      3.840747
  H      -6.132852      2.818727      2.907734
  H      -4.858384      3.363117      4.018264
  H      -1.027366     -2.521212     -2.106482
  H      -4.183838     -0.606662      0.082125
  H      -3.397833     -2.470482     -1.369518
  H       1.185547     -1.580585     -2.154258
  H       2.830875      0.114803     -1.409425
  H       0.439634      3.565514      2.708852
  H       2.739271      3.710220      1.792816
  H       3.453968      2.026209      0.045030
34
Coordinates from ORCA-job 4 E -878.190123150882
  C      -3.140273     -0.683857     -0.190299
  C      -2.700696     -1.716240     -1.024481
  C      -1.374694     -1.739135     -1.439034
  C      -2.244994      0.309299      0.242553
  C      -0.851007      0.283956     -0.085989
  O      -2.734428      1.406313      0.880799
  C      -0.439596     -0.757686     -1.008798
  C       0.887871     -0.807103     -1.454344
  C       1.820855      0.132444     -1.011938
  C       0.137323      1.170517      0.473747
  C       1.491113      1.105675     -0.047038
  N      -0.190967      2.039211      1.467703
  C       0.747425      2.912451      1.894958
  C       2.045069      2.979486      1.394615
  C       2.440816      2.049686      0.427430
  C      -3.638255      1.290919      1.935983
  O      -3.849868      0.232563      2.493113
  N      -4.162489      2.491659      2.244222
  C      -5.146551      2.575026      3.319448
  C      -3.932356      3.721041      1.487111
  H      -4.800556      3.953951      0.862879
  H      -3.053917      3.624835      0.858892
  H      -3.779425      4.542399      2.189860
  H      -5.194111      1.626517      3.845478
  H      -6.133880      2.811431      2.911324
  H      -4.859051      3.364369      4.017518
  H      -1.027444     -2.520530     -2.106761
  H      -4.184265     -0.603120      0.079582
  H      -3.399251     -2.467982     -1.371613
  H       1.185561     -1.582101     -2.152357
  H       2.832240      0.110915     -1.406126
  H       0.440211      3.569283      2.705325
  H       2.741612      3.709322      1.793097
  H       3.456136      2.022315      0.047521
34
Coordinates from ORCA-job 4 E -878.190125490704
  C      -3.140553     -0.682962     -0.191991
  C      -2.700942     -1.715738     -1.025588
  C      -1.374607     -1.739228     -1.439291
  C      -2.245313      0.310133      0.241308
  C      -0.851149      0.284353     -0.086415
  O      -2.735271      1.407263      0.879069
  C      -0.439577     -0.757962     -1.008509
  C       0.888237     -0.808110     -1.452961
  C       1.821417      0.131166     -1.010364
  C       0.137101      1.170904      0.473143
  C       1.491254      1.105206     -0.046287
  N      -0.191824      2.040802      1.466169
  C       0.746809      2.913824      1.893401
  C       2.044949      2.979852      1.394282
  C       2.441080      2.048884      0.428234
  C      -3.637938      1.291231      1.935094
  O      -3.848748      0.232544      2.491972
  N      -4.162579      2.491563      2.244291
  C      -5.145124      2.574179      3.320951
  C      -3.933742      3.721285      1.487329
  H      -4.802819      3.954127      0.864297
  H      -3.056238      3.625446      0.857755
  H      -3.779903      4.542469      2.190070
  H      -5.191082      1.625617      3.847019
  H      -6.133252      2.809733      2.914311
  H      -4.857052      3.363710      4.018553
  H      -1.027041     -2.520803     -2.106623
  H      -4.184712     -0.601698      0.077170
  H      -3.399667     -2.467215     -1.372934
  H       1.185834     -1.583576     -2.150519
  H       2.833175      0.109009     -1.403505
  H       0.439308      3.571581      2.702927
  H       2.741481      3.709584      1.792915
  H       3.456649      2.020659      0.049106
