! B3LYP/G OPT FREQ 6-311G* CPCM(Water)

* xyz 0 1 
C  -3.43521304737168220456 -0.95896738516231905258 -0.44094104514160137320
C  -2.88457870351700407241 -1.86713176532625291237 -1.34229587741004596779
C  -1.54633571587188400898 -1.81129190465157363654 -1.63618957058193803533
C  -2.63652433731567281683 -0.02936813524948322929 0.18968218169220152358
C  -1.24646438925521141350 0.01482894352460517595 -0.04323157859356707711
O  -3.25938696545325790055 0.83696398815892059098 1.07289384524012443300
C  -0.71184370693295140331 -0.87451450479615266964 -1.00708293903447199114
C  0.67164880624064471348 -0.80404689107350502120 -1.34339243952531850468
C  1.49232156967741635967 0.10173823719757724149 -0.76620847953612947201
C  -0.35285449229853260711 0.91553516712123950150 0.63881431836669844149
C  1.00616054759133266572 0.97788509192168071582 0.24306155903834603116
N  -0.81670283634102802672 1.66502668547431520452 1.65039941598789585697
C  -0.01252984556917291492 2.51413465579298955888 2.24331674253751467418
C  1.32622231510095955898 2.69337820441584252507 1.88979350440449311854
C  1.83897479103964478497 1.90448652897890680080 0.88962767037215328969
C  -3.09639841215461775192 2.17118010470902955689 0.85982099712492177090
O  -2.70914977805041434777 2.63200364731370672899 -0.20688914531489088766
N  -3.54202468387269675532 2.89394250265393315757 1.89068217185903386657
C  -3.89512356076194210530 2.27345096794957512998 3.15096130605254964863
C  -3.43101184198231301536 4.33492645639773854782 1.86739539474579552270
H  -3.10989593658054808145 4.64008636392709838958 0.87353394474348577958
H  -2.69739948183943578641 4.67013568337696316490 2.60167270539155470743
H  -4.40036338035293184134 4.78058886851284725594 2.08937656319768283453
H  -4.56692406864967637148 1.43526400623576666504 2.97708348138864975496
H  -4.39161419072103242911 3.01597513802801842075 3.76823781200569829508
H  -3.00228420882155999649 1.90442578000004836269 3.65898544162765881893
H  -1.11448824989742822922 -2.48505733173217091547 -2.35970500317780906840
H  -4.49277503779968334641 -0.96057753454650351976 -0.22869122402172847863
H  -3.52336533868374157663 -2.59184068372228271215 -1.82121843079551926081
H  1.04282072444646045639 -1.48908033339610601509 -2.09020877429063745012
H  2.53384657850448480332 0.17212228818244268425 -1.04200780574481655094
H  -0.45497142574664439785 3.08140079069450578686 3.05111059368421866367
H  1.93163973189951132525 3.42163076244377339918 2.40423268122427202798
H  2.87473858250746783227 1.97860561524424438673 0.59175996621907722695
*
