60
Coordinates from ORCA-job NMU-DCP-GS E -1758.924133195744
  C      -6.469450     -1.534990     -0.100280
  C      -6.420960     -2.802240     -0.935030
  C      -5.391340     -3.757870     -0.345790
  H      -6.158160     -2.550450     -1.965930
  H      -7.411310     -3.259270     -0.949260
  C      -4.059840     -3.071800     -0.154140
  H      -5.261420     -4.636070     -0.980080
  H      -5.754970     -4.120730      0.621890
  C      -4.005310     -1.649570      0.041380
  N      -5.149600     -0.911180      0.013140
  H      -6.863230     -1.756910      0.899940
  H      -7.135610     -0.801310     -0.555170
  C      -5.141410      0.498690      0.404010
  C      -3.881640      1.194940     -0.079030
  H      -5.228480      0.583040      1.494960
  H      -6.026560      0.963000     -0.029880
  C      -2.648940      0.478850      0.459840
  H      -3.893420      2.234870      0.249950
  H      -3.868590      1.195450     -1.171950
  C      -2.750650     -1.013310      0.253070
  H      -2.535740      0.693590      1.527930
  H      -1.748110      0.857120     -0.024170
  C      -2.898150     -3.796860     -0.147770
  C      -1.618780     -1.804280      0.265760
  C      -1.641250     -3.195480      0.065360
  O      -0.418920     -1.178930      0.493500
  C       0.794010     -1.834480      0.533100
  C      -0.423840     -3.896030      0.103290
  C       0.778180     -3.268610      0.330230
  O       1.774050     -1.136260      0.722790
  C       2.050650     -4.004510      0.358100
  C       3.112170     -3.669850      1.216190
  C       2.243850     -5.093000     -0.480990
  N       3.387610     -5.814400     -0.458200
  C       4.404970     -5.493910      0.370260
  C       4.281000     -4.413030      1.215420
  H       1.499680     -5.403690     -1.198740
  H       5.098170     -4.166010      1.877460
  H       5.281680     -6.119690      0.319740
  H       3.011280     -2.831330      1.887700
  H      -2.938380     -4.869070     -0.303240
  H      -0.455770     -4.971300     -0.031730
  P       3.555750     -7.241450     -1.542350
  O       4.919700     -7.747930     -1.379050
  O       3.071870     -6.697020     -2.919440
  O       2.335420     -8.127790     -1.143670
  C       2.355560     -8.986830      0.061850
  C       3.965300     -5.957420     -3.843240
  C       1.025390     -9.690320      0.140570
  H       2.528030     -8.345110      0.925430
  H       3.184350     -9.683080     -0.048840
  H       3.349660     -5.137340     -4.203340
  C       4.417400     -6.867050     -4.957670
  H       4.801700     -5.552520     -3.275290
  H       0.208420     -8.974380      0.233630
  H       1.022800    -10.333620      1.022370
  H       0.859420    -10.311420     -0.740050
  H       3.562600     -7.274550     -5.498250
  H       5.024040     -7.688410     -4.575720
  H       5.022910     -6.287080     -5.657140
60
Coordinates from ORCA-job NMU-DCP-GS E -1758.924133007606
  C      -6.469857     -1.534473     -0.099362
  C      -6.421722     -2.801528     -0.934428
  C      -5.391990     -3.757378     -0.345733
  H      -6.159220     -2.549502     -1.965348
  H      -7.412106     -3.258488     -0.948472
  C      -4.060374     -3.071463     -0.154367
  H      -5.262339     -4.635446     -0.980265
  H      -5.755350     -4.120425      0.621979
  C      -4.005675     -1.649265      0.041436
  N      -5.149926     -0.910798      0.013795
  H      -6.863357     -1.756585      0.900924
  H      -7.136096     -0.800636     -0.553876
  C      -5.141486      0.498990      0.404957
  C      -3.881862      1.195251     -0.078434
  H      -5.228140      0.583120      1.495959
  H      -6.026776      0.963450     -0.028486
  C      -2.649007      0.478961      0.459803
  H      -3.893438      2.235114      0.250748
  H      -3.869246      1.195974     -1.171357
  C      -2.750892     -1.013150      0.252797
  H      -2.535410      0.693457      1.527905
  H      -1.748327      0.857289     -0.024436
  C      -2.898727     -3.796601     -0.148487
  C      -1.619069     -1.804214      0.264935
  C      -1.641701     -3.195379      0.064294
  O      -0.419097     -1.178906      0.492162
  C       0.793812     -1.834509      0.531051
  C      -0.424338     -3.896079      0.102076
  C       0.777734     -3.268746      0.328929
  O       1.773829     -1.136586      0.721959
  C       2.050205     -4.004653      0.357302
  C       3.111307     -3.669766      1.215806
  C       2.243812     -5.093252     -0.481569
  N       3.387698     -5.814486     -0.458181
  C       4.404669     -5.493738      0.370640
  C       4.280210     -4.412777      1.215627
  H       1.499940     -5.404129     -1.199552
  H       5.097061     -4.165572      1.877994
  H       5.281476     -6.119411      0.320564
  H       3.010045     -2.831170      1.887184
  H      -2.939104     -4.868772     -0.304120
  H      -0.456321     -4.971365     -0.032810
  P       3.556636     -7.241746     -1.541945
  O       4.920685     -7.747744     -1.377980
  O       3.073107     -6.697856     -2.919383
  O       2.336406     -8.128430     -1.143638
  C       2.356220     -8.987289      0.061998
  C       3.966526     -5.958099     -3.843064
  C       1.026070     -9.690838      0.140435
  H       2.528564     -8.345516      0.925565
  H       3.185012     -9.683586     -0.048402
  H       3.350898     -5.137900     -4.202913
  C       4.418488     -6.867566     -4.957675
  H       4.802977     -5.553361     -3.275084
  H       0.208972     -8.975022      0.233174
  H       1.023300    -10.334111      1.022256
  H       0.860425    -10.312003     -0.740201
  H       3.563607     -7.274977     -5.498194
  H       5.025151     -7.688988     -4.575901
  H       5.023900     -6.287519     -5.657159
