! CAM-B3LYP VERYTIGHTOPT Def2-TZVP(-f) TightSCF CPCM(Water)
%tddft
    NRoots 3
    IRoot 1
end 

* xyz 1 1 
  C          -4.78986328346326      0.28386270329483      0.47222989332789
  C          -5.37819185787362     -0.56573934484806      1.38796735698578
  C          -4.58214196414587     -1.14063311628925      2.36240935739827
  C          -3.43015992199052      0.60877653487136      0.55344612937824
  C          -2.63047021355923      0.17595949616564      1.63062390450217
  O          -2.96458211568902      1.34094629349426     -0.48036074239669
  C          -3.21643602662175     -0.80925561717772      2.47860753054076
  C          -2.41893461014539     -1.46449426417305      3.42796031837986
  C          -1.07057598937220     -1.20099743695280      3.51052417565479
  C          -1.31484058647100      0.59817117023981      1.90295389713305
  C          -0.47690583871621     -0.18421270209751      2.73574353711530
  N          -0.77668015664350      1.78605689559031      1.37165059993380
  C           0.61232521603336      1.83998778550734      1.21436538773208
  C           1.43770764392566      0.99244831761827      1.87647429195907
  C           0.90609252466288      0.03500308901832      2.74693577085709
  C          -1.89631126959551      0.88407063811438     -1.25316474108897
  O          -1.32966942895032     -0.15265699833358     -0.99797478565755
  N          -1.64129117672614      1.72017772189777     -2.25696705459018
  C          -2.45328901182775      2.87407657806822     -2.61009375452647
  C          -0.60259556575659      1.36499868631121     -3.21001801205289
  H          -1.04788135515347      1.00470097772752     -4.13930200394956
  H           0.03177947293891      0.59211995915422     -2.79156358416202
  H          -0.00548928711786      2.24965546695152     -3.42615424320354
  H          -1.79459952725926      3.72030710271530     -2.79948838672472
  H          -3.13303450548067      3.13094311113374     -1.80905806814784
  H          -3.02093025514973      2.66127543737821     -3.51772129948500
  H          -4.99694011722014     -1.85716713724904      3.05851244394109
  H          -5.35080236018166      0.68948728375332     -0.35849183926217
  H          -6.42713006650561     -0.81122678634776      1.31339377179043
  H          -2.86597234078017     -2.21825738291765      4.06196817712571
  H          -0.44649386938168     -1.76760253023126      4.18870893091182
  H           0.97498571963253      2.62974668677530      0.57400435330902
  H           2.50456877040632      1.09151169414915      1.73874720133307
  H           1.53986404074907     -0.56781505666680      3.38000458887604
  P          -1.56437461105913      3.30076594980709      1.56140776887573
  O          -2.97177970748687      3.14152901742824      1.92689927611438
  O          -1.18622400518436      3.94787679148636      0.19291493137607
  O          -0.69737368076878      4.12435449809155      2.58199319387071
  C          -1.30030560275996      5.37958863567972     -0.06241178727833
  C          -1.04202695493746      4.26806145844542      3.98948310814796
  C          -0.07853063965079      5.82799104979909     -0.81598130917795
  H          -1.39946099469219      5.90443175381759      0.88575439109676
  H          -2.21027081074549      5.51633720952075     -0.64232853788095
  H           0.82027728456780      5.68585379906667     -0.21668327101141
  H          -0.17321985938610      6.88803668537220     -1.05311139388792
  H           0.02571954602654      5.27398339693675     -1.74862069856460
  C          -0.16227651218406      3.39353114192846      4.84263064554289
  H          -2.09642978995984      4.03160735113944      4.11384447889364
  H          -0.88971401284500      5.32241883689481      4.20738533744901
  H           0.88977037530636      3.63030963982768      4.68666399924454
  H          -0.32332093235608      2.33821701484018      4.62354475138643
  H          -0.40187978988721      3.56594052932834      5.89259200776293
*

