52
Coordinates from ORCA-job hbq-dcp-es E -1603.281505315080
  C          -4.78808480560714      0.28464755553502      0.47542087229999
  C          -5.37559216580705     -0.56530891233499      1.39141588983833
  C          -4.57858801324459     -1.14063663100984      2.36477016381173
  C          -3.42836057213279      0.60954373957663      0.55550449034129
  C          -2.62760756947247      0.17636641499776      1.63167800966746
  O          -2.96363590461254      1.34203894025419     -0.47850964225803
  C          -3.21271207340936     -0.80938855334671      2.47970214575903
  C          -2.41419460363969     -1.46544451094742      3.42757557573658
  C          -1.06567277402161     -1.20212066202789      3.50875527566161
  C          -1.31160068022918      0.59832499558694      1.90279072897183
  C          -0.47282942664496     -0.18475392298069      2.73409573243995
  N          -0.77385559770553      1.78642250560236      1.37161072895686
  C           0.61505463589614      1.84068575856234      1.21347421061380
  C           1.44103108037367      0.99276334329809      1.87433450706702
  C           0.91017946568134      0.03445748620359      2.74429268282884
  C          -1.89723814357345      0.88422151602863     -1.25323154727340
  O          -1.33072013162699     -0.15276107912369     -0.99870572063957
  N          -1.64358610453861      1.71979566166984     -2.25781977671520
  C          -2.45508094646321      2.87448897777888     -2.60946021062437
  C          -0.60692375925732      1.36375076204828     -3.21274677818726
  H          -1.05431238783733      1.00516691441571     -4.14167897765347
  H           0.02672823598979      0.58934775936796     -2.79602092416904
  H          -0.00855345597240      2.24753916954123     -3.42899597226670
  H          -1.79604244973948      3.72054458306972     -2.79850477833790
  H          -3.13427152709157      3.13100405695376     -1.80785371324591
  H          -3.02331578951989      2.66272830627081     -3.51695508789446
  H          -4.99272471178074     -1.85749327079966      3.06093812498080
  H          -5.34985357079385      0.69052978377338     -0.35461309171236
  H          -6.42461350346453     -0.81071605010426      1.31775492743161
  H          -2.86052793399815     -2.21966348077190      4.06153621443242
  H          -0.44087898215292     -1.76929161183578      4.18581350275175
  H           0.97714141007594      2.63098155671248      0.57346770166668
  H           2.50779179071081      1.09205500989933      1.73596706368648
  H           1.54452878175884     -0.56898268326099      3.37618543236675
  P          -1.56156760851490      3.30112789707102      1.56149474622341
  O          -2.96868591153533      3.14222958504993      1.92815867488539
  O          -1.18440667042950      3.94762425524660      0.19232777789392
  O          -0.69378846007552      4.12479745534335      2.58139251846271
  C          -1.29751483593422      5.37945664002644     -0.06288807328482
  C          -1.04181026394046      4.27589135839452      3.98724790616564
  C          -0.07525857425403      5.82747376250726     -0.81586777866228
  H          -1.39694815965882      5.90422250039601      0.88529511143544
  H          -2.20722736273638      5.51662425615438     -0.64311381396747
  H           0.82326015204406      5.68466274567933     -0.21628642924296
  H          -0.16927657665672      6.88767116577165     -1.05258197979190
  H           0.02908998266474      5.27385890233583     -1.74872910005587
  C          -0.18178652962943      3.38723383892517      4.84597095194410
  H          -2.10081025040817      4.05839490680606      4.10698743903915
  H          -0.87175894762736      5.32770271449812      4.20427062060033
  H           0.87508589021814      3.60386687145087      4.69348068313785
  H          -0.36175540526408      2.33448907342367      4.62917220466236
  H          -0.42222829584306      3.56688865837235      5.89453077511941
