! B3LYP/G OPT FREQ 6-311G* CPCM(Water)

%tddft
    NRoots 3
    IRoot 1
end 

* xyz 1 1 
C  -3.50701099056994625158 -0.66402153735253344191 0.54410985724832461319
C  -3.93431976367768720948 -1.54202165279254632679 1.54114721691058398356
C  -3.21002372410935832292 -1.69475011744151782267 2.69728135528114698616
C  -2.40629333727950678323 0.13652996144257081856 0.75166088939422737170
C  -1.70484451832374306335 0.08133906855102662758 1.98168876313034414416
O  -1.81608986251973880677 0.90141496560342393440 -0.22528870280824195294
C  -2.06438630766602226885 -0.91981935107273837815 2.92209396695423251344
C  -1.21639044740220492180 -1.16809679494234730512 4.04097369266946238042
C  -0.02755882961886599314 -0.53459894344716940573 4.17318170368135987758
C  -0.58823888147829306305 0.91416299525004585114 2.27690576132871003168
C  0.32980905211285482803 0.52235123798827265418 3.28820192658940646524
N  -0.37357809178968492958 2.09249092814017245701 1.63093295870169407991
C  0.80389559306284841256 2.72489595027298348029 1.72136743769542110982
C  1.81205592776393897836 2.26811602497797881739 2.54354875818482950578
C  1.54158051918924754453 1.21364654703931695856 3.39749066025624868459
C  -2.47472429172406416242 1.28810570027226756196 -1.37129285100064435277
O  -3.68460931485753961923 1.43872512257837925631 -1.42292981425149411834
N  -1.62944745114667544073 1.50083184870944252864 -2.37493887225482502856
C  -2.11308845336685768856 2.06321114760811807898 -3.61733026485419495444
C  -0.19490765238087681688 1.33110340211321287462 -2.27850685886379222822
H  0.28335953747928543933 2.28236874900295871882 -2.04363574154099270075
H  0.16999134959419817670 0.97153803856759357593 -3.23879175046142453454
H  0.04878667435817531095 0.60616032088008342527 -1.50752818777693309293
H  -3.18712447964220446650 2.21955700072083761398 -3.54399397965732010363
H  -1.90670548423080110645 1.37687377163062985019 -4.43882929157152616995
H  -1.61780101896727868116 3.01417059800973241579 -3.81084228030050997660
H  -3.50118456807429900834 -2.42789397658398753421 3.43208958579892975393
H  -4.04049963239409137827 -0.61132403401893464778 -0.39133646773481972625
H  -4.81795867989701775969 -2.13459932977634148088 1.36616180665226627511
H  -1.52123975106570608062 -1.92736083896015464312 4.74345851036571009018
H  0.66113534549936292528 -0.79307816021889454561 4.96093432820362156832
H  0.89569550855175128490 3.63190555525484359833 1.14315052396622607311
H  2.75953694501800583794 2.77984399299300921626 2.56609752564532334063
H  2.25212299842037122488 0.91656039317164683666 4.15342659560530957918
P  -1.72715794172276870810 3.13410952851499491345 1.17303582891515545406
O  -3.05089545138250795020 2.60558480349249510510 1.50735853924484253241
O  -1.29105068596674077419 3.50899644305359759144 -0.28471270031828538327
O  -1.36811912461909557237 4.44862370900382764205 1.99058344730407332790
C  -1.60677200168761125099 4.77867759752105669691 -0.88649211762185153862
C  -2.00226131229689441327 4.72215473018561127105 3.24411613368858509077
C  -3.09998485476859464427 5.03012075990153562088 -0.92611248599732420850
H  -1.19313044707328375083 4.70835168942339077347 -1.89364809952942181326
H  -1.10133707967677874073 5.56971338303739127440 -0.32836244807097864085
H  -3.61374769615612212448 4.20294960258987959634 -1.41371456197692269008
H  -3.30813016064022447082 5.94744966354299808842 -1.46829486520473695421
H  -3.49348548930192359663 5.11637998209666911009 0.08609429208147854895
C  -1.36914708395996487234 3.93390639626529692308 4.37485833467532359009
H  -3.06661354427629850861 4.48234944450373884450 3.16086347839114845115
H  -1.87958689094275155362 5.79661820630432611523 3.39094034179200676249
H  -1.80186382432120373309 4.25408042819747045371 5.31796400516046219309
H  -0.29630307773080166722 4.10537598981570717172 4.40206862219224159816
H  -1.56666723731728541047 2.87127906914285757622 4.24564545723463560023
*
