! B3LYP/G OPT Def2-TZVP(-f) Def2-TZVP/C Def2/J RIJCOSX TightSCF CPCM(Water) AllPop SOSCF
%maxcore 3000

%scf
	MaxIter 125
	CNVDIIS 1
	CNVSOSCF 1 
end

%tddft
    NRoots 1
    IRoot 1
end 

* xyz 1 1

  C   -6.42875536518090     -1.42538530577979      0.23531391923856
  C   -6.51020708173099     -2.93295434893579      0.11530198757181
  C   -5.44051677661122     -3.56808046160425      0.99130956999687
  H   -6.37161249753711     -3.22819996577248     -0.92730354846814
  H   -7.50608364108595     -3.25214333025517      0.42130036170985
  C   -4.08882632952667     -3.01845118567456      0.64429407750189
  H   -5.43059191035100     -4.65342699406728      0.89661399650077
  H   -5.65270251117045     -3.34016895051581      2.04233144833671
  C   -3.96674359254634     -1.65509005850156      0.16976888686221
  N   -5.06829810731111     -0.90977565695133      0.00233771031546
  H   -6.73646621441652     -1.09198873093231      1.23184254395672
  H   -7.07406367605259     -0.93421057722737     -0.49049429512879
  C   -4.99068077528763      0.52146433245072     -0.33563847772060
  C   -3.80972936414614      0.81677142113044     -1.23808617927717
  H   -4.91551060147254      1.07800873130847      0.60381729901749
  H   -5.93185081266812      0.78831712743541     -0.80883183764178
  C   -2.52648773802080      0.32503875522283     -0.58471715629520
  H   -3.76208056431330      1.89087732425014     -1.41427851336595
  H   -3.95792058169331      0.32750569083356     -2.20323435131789
  C   -2.67502701197867     -1.09080731835548     -0.10570367149741
  H   -2.28112036088318      0.96022257414458      0.27404354201406
  H   -1.68541028744563      0.39446074196447     -1.27247449150791
  C   -2.95696012300127     -3.76449611116743      0.79219041679467
  C   -1.57845567845848     -1.89783482624865      0.08482702913918
  C   -1.67863933531489     -3.23540762011351      0.51925021088281
  O   -0.35124921856876     -1.35537417234607     -0.17162142425573
  C   0.82354290830387     -2.06727642693005     -0.06375590347474
  C   -0.48664439316882     -3.99425198260117      0.65652004600055
  C   0.72845772614263     -3.45975997812734      0.37333281494548
  O   1.84505555457527     -1.48531134336466     -0.34332050551389
  C   1.98194370558940     -4.25364322874213      0.48272719644293
  C   2.90231345847164     -4.00919420587472      1.52418088379086
  C   2.19428000555041     -5.24477641205298     -0.42722063326907
  N   3.34199745042668     -6.05983225995088     -0.35585652904231
  C   4.25754716242084     -5.82980296425537      0.68737747990743
  C   4.04386572896483     -4.84262181058744      1.59103767973658
  H   1.51521225241843     -5.44973649567297     -1.23800388102997
  H   4.77393930936164     -4.70765701400624      2.37699878727399
  H   5.11062222317344     -6.48556365452548      0.70286499251775
  H   2.73511815042820     -3.22830908815413      2.24767984296877
  H   -3.02899728859384     -4.78814887657105      1.13658746422148
  H   -0.56246516726039     -5.02294692399127      0.98608652385388
  P   3.60896629058646     -7.25771316246651     -1.52709098597510
  O   4.85982962952775     -7.97822005113877     -1.23215850425517
  O   3.48656728699596     -6.54719273701541     -2.93331354510149
  O   2.27580747192578     -8.10302425657292     -1.60447740687857
  C   1.94562479689374     -9.04473792215683     -0.53188135891785
  C   4.49028480503156     -5.56456561365211     -3.35394400026601
  C   0.67193775222732     -9.75848970910148     -0.91466140459996
  H   1.82459920934154     -8.48031939102863      0.39361401633473
  H   2.77743426390409     -9.73938068806426     -0.41920387562481
  H   4.05344818441518     -4.58168381806788     -3.18085617480821
  C   4.80839381845465     -5.78829061729668     -4.81320325448292
  H   5.38266690980080     -5.66886712979825     -2.73655869301476
  H   -0.15087896599498     -9.05260017959032     -1.03378082862677
  H   0.40844144094962    -10.46494396654173     -0.12555498558001
  H   0.80121292285679    -10.31310618945485     -1.84485035915677
  H   3.91009790399633     -5.70181415828769     -5.42601921704605
  H   5.25024474301748     -6.77303126450421     -4.96872250614060
  H   5.52331290603921     -5.03224756414525     -5.14330222855187
*

