! B3LYP/G FREQ Def2-TZVP(-f) Def2-TZVP/C Def2/J RIJCOSX TightSCF CPCM(Water) AllPop SOSCF

* xyz 0 1
  C   -3.29427742206977     -0.64644673085454     -0.61830236256619
  C   -2.79193783387700     -1.50249156800673     -1.60322792775029
  C   -1.43844741589871     -1.54295748570471     -1.83596893493297
  C   -2.44969206905909      0.15850848959996      0.11391956764737
  C   -1.04607727993728      0.15369735491148     -0.08995443163697
  O   -3.05525269796050      0.89173977299862      1.12959822010116
  C   -0.55477066364860     -0.73383628884240     -1.09494226085955
  C   0.85066792963646     -0.81848025448833     -1.35762898897175
  C   1.74401779923739     -0.07425581331070     -0.66737944471889
  C   -0.08241957285496      0.96443894314803      0.64180782419541
  C   1.30221875961813      0.83188058829893      0.34390661999475
  N   -0.50882215483953      1.83341350947850      1.58611497959203
  C   0.37819738949340      2.55939671190755      2.24324732821966
  C   1.76019638572666      2.49029902726503      2.02389061707692
  C   2.21723932916533      1.61947413145264      1.06525520416058
  C   -3.31427517051416      2.21787061229053      0.89751096115064
  O   -3.11988103641509      2.74303800996144     -0.18822723553327
  N   -3.81843227930513      2.82579231825617      1.98870596281696
  C   -4.10556772801243      2.13772237657102      3.24266622696836
  C   -4.30227119923351      4.19610361307538      1.88500291297919
  H   -3.98874170086744      4.62290173107799      0.93846166745227
  H   -3.89263782966633      4.78961938799755      2.70400595438292
  H   -5.39382275814618      4.22350650742727      1.94830989785070
  H   -3.48220878815922      1.25726619784040      3.34737346058787
  H   -5.15750648016043      1.84205279906163      3.29595013045477
  H   -3.89638476178200      2.81849315185918      4.06829296562207
  H   -1.02766113168993     -2.20187664831027     -2.59059448930793
  H   -4.35518479399456     -0.60407587746015     -0.40998670468854
  H   -3.46975409960987     -2.12665192730886     -2.17083923618162
  H   1.18140391106415     -1.50342445895894     -2.12860190829612
  H   2.80578802419604     -0.14726035945888     -0.86955320666875
  H   -0.01665804974943      3.24215862326288      2.98920828240005
  H   2.43579950381512      3.11184457478342      2.59606312027014
  H   3.27530588549879      1.52837898017867      0.85029522818887
*

