! B3LYP/G VERYTIGHTOPT FREQ Def2-TZVP(-f) Def2-TZVP/C Def2/J RIJCOSX TightSCF CPCM(Water) AllPop SOSCF

* xyz 0 1 
  C          -3.35948158892705     -0.81444608522877     -0.33506793746229
  C          -2.89851569719394     -1.74141552714154     -1.27998027721631
  C          -1.56108177527527     -1.76604871187144     -1.60856918851113
  C          -2.48955845507269      0.07240424099622      0.26788844778801
  C          -1.10144731004095      0.08566989102249     -0.03876645344656
  O          -3.04515978394596      0.87971150108871      1.25435693519025
  C          -0.65125139198694     -0.87183221464472     -1.00256628906920
  C           0.73817144214643     -0.93760517040887     -1.35779285926328
  C           1.65378084294859     -0.11152106422619     -0.79439995354395
  C          -0.11550044679223      0.98070704693417      0.55778175566044
  C           1.25263520611744      0.86289006593645      0.17428200873787
  N          -0.50889776385719      1.90738523985773      1.46443574315835
  C           0.39713144956435      2.70839064495710      2.00303683127725
  C           1.76628982058414      2.66308449202771      1.69366671185405
  C           2.18891071820376      1.73292159042856      0.77041998460743
  C          -3.32082597065624      2.18928715321849      0.93338794894444
  O          -3.22086385139128      2.61653430713668     -0.20356793887396
  N          -3.73695413756670      2.88595951566779      2.01339476258630
  C          -3.87840594766566      2.31879126074967      3.35063272244724
  C          -4.22198973063247      4.24936137448296      1.83762655552298
  H          -5.29792309289751      4.30357497445621      2.03386771741187
  H          -4.02880221775699      4.57407270038374      0.81968688821786
  H          -3.70891952067628      4.91851156283328      2.53318422308184
  H          -3.29065665958963      1.41190220290038      3.44301721683508
  H          -4.92707843062979      2.09141319246891      3.57116737866262
  H          -3.52240180383059      3.04650316032263      4.08335869020071
  H          -1.18497024178843     -2.47900019308883     -2.33480164326312
  H          -4.40611385592532     -0.77914300658434     -0.05470644645420
  H          -3.59555754359298     -2.43051237495949     -1.74402910615141
  H           1.04085415880705     -1.67606340790074     -2.09317538356037
  H           2.70270575909045     -0.17287365200872     -1.06699551072059
  H           0.02634175350735      3.43481287752689      2.72239109562150
  H           2.45856329492960      3.34729534242911      2.17068163656332
  H           3.23512276708455      1.65711706296179      0.49053372748599
*
