34
Coordinates from ORCA-job 2 E -878.178801203502
  C      -3.323654     -1.113660     -0.295793
  C      -2.731006     -2.048032     -1.141921
  C      -1.397311     -1.946400     -1.444652
  C      -2.569971     -0.108974      0.272174
  C      -1.183850     -0.013695      0.031359
  O      -3.231516      0.779622      1.103853
  C      -0.607802     -0.934161     -0.877719
  C       0.770941     -0.818661     -1.221303
  C       1.547476      0.158908     -0.702983
  C      -0.334436      0.968814      0.653976
  C       1.020056      1.071539      0.251833
  N      -0.834442      1.754800      1.619470
  C      -0.072656      2.676112      2.158097
  C       1.256270      2.896919      1.791416
  C       1.807013      2.074199      0.839683
  C      -3.142814      2.104100      0.803219
  O      -2.792822      2.516754     -0.295966
  N      -3.606477      2.864796      1.796898
  C      -3.931323      2.291695      3.086877
  C      -3.611447      4.304272      1.672259
  H      -2.910514      4.747538      2.380733
  H      -4.614236      4.687380      1.860738
  H      -3.307588      4.562206      0.659648
  H      -3.048416      1.821420      3.522339
  H      -4.707925      1.535275      2.978391
  H      -4.285075      3.087076      3.734766
  H      -0.934666     -2.641811     -2.127555
  H      -4.379336     -1.152375     -0.077857
  H      -3.334828     -2.830648     -1.572690
  H       1.174664     -1.529880     -1.925552
  H       2.584565      0.261448     -0.985333
  H      -0.543540      3.269274      2.930362
  H       1.826385      3.682651      2.259508
  H       2.838442      2.179328      0.536103
34
Coordinates from ORCA-job 2 E -878.188396953803
  C      -3.344497     -1.129065     -0.315133
  C      -2.746180     -2.059963     -1.172726
  C      -1.398036     -1.942638     -1.475959
  C      -2.589913     -0.109468      0.259021
  C      -1.180873     -0.003607      0.043542
  O      -3.290197      0.765451      1.062252
  C      -0.602622     -0.928129     -0.892962
  C       0.767805     -0.813037     -1.232963
  C       1.563112      0.170963     -0.685770
  C      -0.317712      0.947326      0.707672
  C       1.052456      1.061791      0.296412
  N      -0.801968      1.710301      1.719734
  C      -0.021773      2.637783      2.275318
  C       1.297335      2.878808      1.885637
  C       1.850670      2.064253      0.899446
  C      -3.312024      2.096057      0.712763
  O      -3.107742      2.478232     -0.430804
  N      -3.666073      2.873446      1.752285
  C      -3.797570      2.331379      3.102669
  C      -3.702941      4.317486      1.587141
  H      -2.902764      4.782616      2.173701
  H      -4.669782      4.710044      1.910779
  H      -3.551484      4.553517      0.537569
  H      -2.852298      1.897162      3.437304
  H      -4.564064      1.555352      3.135161
  H      -4.083296      3.139747      3.771658
  H      -0.930207     -2.634497     -2.167600
  H      -4.406796     -1.167466     -0.105724
  H      -3.348315     -2.843376     -1.616246
  H       1.171229     -1.515316     -1.954348
  H       2.602906      0.274700     -0.977166
  H      -0.474555      3.212949      3.080072
  H       1.864101      3.664838      2.367073
  H       2.882227      2.180192      0.584574
34
Coordinates from ORCA-job 2 E -878.189908114973
  C      -3.345326     -1.119754     -0.308408
  C      -2.760725     -2.085688     -1.143027
  C      -1.397040     -1.992154     -1.439196
  C      -2.571803     -0.086387      0.246753
  C      -1.149534      0.010532      0.039858
  O      -3.286040      0.789774      1.021636
  C      -0.582767     -0.964669     -0.883078
  C       0.777770     -0.886012     -1.220480
  C       1.599375      0.120752     -0.693225
  C      -0.277266      0.965586      0.677985
  C       1.109763      1.052595      0.253173
  N      -0.760571      1.793456      1.652745
  C       0.041979      2.766622      2.143884
  C       1.358677      2.979517      1.731910
  C       1.919462      2.091634      0.792456
  C      -3.199016      2.154874      0.772451
  O      -2.774666      2.587938     -0.283868
  N      -3.704724      2.866866      1.803815
  C      -4.095572      2.231223      3.069349
  C      -3.641602      4.326813      1.756405
  H      -2.924138      4.694378      2.501274
  H      -4.625204      4.759380      1.959577
  H      -3.311677      4.639625      0.771007
  H      -3.242642      1.730673      3.533150
  H      -4.889053      1.496874      2.915063
  H      -4.467511      3.003688      3.741473
  H      -0.934114     -2.715164     -2.106751
  H      -4.410963     -1.134151     -0.100722
  H      -3.372086     -2.873351     -1.572305
  H       1.177368     -1.617553     -1.918807
  H       2.639672      0.199176     -1.001436
  H      -0.392666      3.391391      2.925117
  H       1.927664      3.795424      2.167054
  H       2.953137      2.183921      0.469550
34
Coordinates from ORCA-job 2 E -878.191563786991
  C      -3.328526     -1.107150     -0.281710
  C      -2.757104     -2.064619     -1.129702
  C      -1.404236     -1.961480     -1.450592
  C      -2.552936     -0.070209      0.258865
  C      -1.139570      0.025156      0.037552
  O      -3.259140      0.809128      1.033639
  C      -0.585521     -0.936658     -0.901982
  C       0.769815     -0.855079     -1.252163
  C       1.596591      0.133663     -0.708339
  C      -0.261779      0.947430      0.698941
  C       1.120365      1.037036      0.267102
  N      -0.733900      1.727221      1.711054
  C       0.078964      2.675956      2.223568
  C       1.388718      2.901867      1.803481
  C       1.937962      2.050087      0.831654
  C      -3.234496      2.169679      0.739221
  O      -2.925827      2.580652     -0.362275
  N      -3.727545      2.881949      1.770171
  C      -3.994541      2.271797      3.075004
  C      -3.764760      4.338093      1.670240
  H      -3.021684      4.779521      2.342871
  H      -4.755793      4.711909      1.936614
  H      -3.534056      4.633509      0.651012
  H      -3.080364      1.858911      3.505585
  H      -4.736120      1.475672      2.993582
  H      -4.387056      3.041633      3.737013
  H      -0.950139     -2.678583     -2.126693
  H      -4.388934     -1.121631     -0.059414
  H      -3.370436     -2.850877     -1.552972
  H       1.165312     -1.571255     -1.964843
  H       2.632252      0.212800     -1.024570
  H      -0.341886      3.268368      3.032601
  H       1.965976      3.696680      2.262300
  H       2.968553      2.146654      0.507568
34
Coordinates from ORCA-job 2 E -878.191947322418
  C      -3.314928     -1.102854     -0.254344
  C      -2.753201     -2.060527     -1.105109
  C      -1.408609     -1.951699     -1.445857
  C      -2.538514     -0.057412      0.267065
  C      -1.130720      0.042835      0.026857
  O      -3.243745      0.821278      1.039184
  C      -0.586599     -0.921753     -0.913968
  C       0.766160     -0.845758     -1.274077
  C       1.599483      0.134131     -0.730183
  C      -0.246512      0.960211      0.685120
  C       1.135222      1.034749      0.251477
  N      -0.708306      1.736212      1.704016
  C       0.121369      2.665780      2.224096
  C       1.435180      2.870990      1.809642
  C       1.969212      2.026053      0.827433
  C      -3.229213      2.184656      0.745333
  O      -2.880955      2.601528     -0.341101
  N      -3.751908      2.886573      1.767344
  C      -4.033556      2.272657      3.065993
  C      -3.816840      4.341083      1.666604
  H      -3.093156      4.801575      2.345748
  H      -4.818458      4.690923      1.924593
  H      -3.585427      4.640556      0.648444
  H      -3.120106      1.886207      3.522382
  H      -4.751744      1.457959      2.967712
  H      -4.462414      3.033918      3.714904
  H      -0.960040     -2.671396     -2.122183
  H      -4.371631     -1.118782     -0.016284
  H      -3.367479     -2.852337     -1.515367
  H       1.158718     -1.562559     -1.987010
  H       2.633754      0.204261     -1.051699
  H      -0.289907      3.257602      3.037975
  H       2.030474      3.645111      2.280605
  H       3.002556      2.106059      0.509032
34
Coordinates from ORCA-job 2 E -878.192075527306
  C      -3.309375     -1.099378     -0.240852
  C      -2.754383     -2.058011     -1.093571
  C      -1.414008     -1.946475     -1.445749
  C      -2.530350     -0.049311      0.269814
  C      -1.125298      0.051051      0.020753
  O      -3.232536      0.830697      1.038378
  C      -0.588047     -0.914985     -0.921877
  C       0.763645     -0.843800     -1.285948
  C       1.601016      0.130151     -0.738919
  C      -0.238168      0.965518      0.679846
  C       1.144283      1.029136      0.247047
  N      -0.699193      1.750076      1.693696
  C       0.141963      2.668521      2.218117
  C       1.461231      2.853186      1.813942
  C       1.988866      2.007387      0.830460
  C      -3.211473      2.198341      0.751428
  O      -2.847953      2.620304     -0.326722
  N      -3.756353      2.888941      1.768733
  C      -4.047989      2.270434      3.063259
  C      -3.851846      4.341717      1.665454
  H      -3.141250      4.822594      2.343996
  H      -4.861615      4.666888      1.924334
  H      -3.629761      4.644449      0.646179
  H      -3.134807      1.913905      3.544410
  H      -4.739305      1.434910      2.951602
  H      -4.513972      3.021037      3.698986
  H      -0.969151     -2.666700     -2.124215
  H      -4.364072     -1.113221      0.006951
  H      -3.369685     -2.852479     -1.497507
  H       1.156489     -1.559227     -2.000216
  H       2.634760      0.193777     -1.064164
  H      -0.267187      3.269265      3.026867
  H       2.068355      3.614759      2.290920
  H       3.025332      2.074372      0.518947
34
Coordinates from ORCA-job 2 E -878.192112191458
  C      -3.307648     -1.102574     -0.233534
  C      -2.754095     -2.060027     -1.088098
  C      -1.416071     -1.943984     -1.446850
  C      -2.528770     -0.049177      0.272868
  C      -1.124242      0.052606      0.019830
  O      -3.232029      0.831976      1.036876
  C      -0.589388     -0.911232     -0.925329
  C       0.761094     -0.838332     -1.293801
  C       1.598933      0.133448     -0.744538
  C      -0.236537      0.967627      0.679314
  C       1.145658      1.027887      0.247204
  N      -0.697351      1.753419      1.692774
  C       0.148521      2.665353      2.222525
  C       1.469882      2.842546      1.823165
  C       1.995054      1.999168      0.836653
  C      -3.210790      2.201279      0.748996
  O      -2.843302      2.623242     -0.327161
  N      -3.755616      2.890461      1.767133
  C      -4.047145      2.274001      3.062627
  C      -3.862653      4.342172      1.659313
  H      -3.149691      4.833133      2.328293
  H      -4.872401      4.658783      1.928949
  H      -3.655455      4.642594      0.636270
  H      -3.132479      1.936060      3.554456
  H      -4.722977      1.426351      2.949578
  H      -4.530937      3.020283      3.690224
  H      -0.972357     -2.661296     -2.129208
  H      -4.361266     -1.116635      0.018983
  H      -3.368437     -2.856418     -1.489768
  H       1.154539     -1.549762     -2.011714
  H       2.631758      0.196910     -1.073023
  H      -0.260554      3.268356      3.029656
  H       2.082466      3.597248      2.304285
  H       3.032448      2.062363      0.527434
34
Coordinates from ORCA-job 2 E -878.192122625639
  C      -3.306521     -1.103561     -0.228580
  C      -2.754191     -2.060305     -1.084807
  C      -1.417245     -1.942380     -1.447755
  C      -2.526930     -0.049021      0.276198
  C      -1.121906      0.052172      0.020831
  O      -3.230566      0.832663      1.038751
  C      -0.589349     -0.909742     -0.926813
  C       0.760003     -0.835600     -1.299515
  C       1.598975      0.135118     -0.750016
  C      -0.232547      0.967194      0.679721
  C       1.148646      1.026515      0.246114
  N      -0.691775      1.752586      1.694258
  C       0.156509      2.661322      2.226708
  C       1.478327      2.835817      1.827872
  C       2.001220      1.994247      0.838201
  C      -3.207794      2.202972      0.751362
  O      -2.840489      2.624353     -0.324881
  N      -3.756500      2.892022      1.767575
  C      -4.052783      2.277636      3.062834
  C      -3.871183      4.342918      1.655016
  H      -3.157891      4.840557      2.318939
  H      -4.881370      4.654803      1.928602
  H      -3.670439      4.640861      0.629993
  H      -3.138323      1.957325      3.566904
  H      -4.712817      1.418203      2.946422
  H      -4.555828      3.019093      3.681032
  H      -0.974886     -2.657435     -2.133425
  H      -4.359478     -1.117481      0.026873
  H      -3.368558     -2.857345     -1.485227
  H       1.152153     -1.544431     -2.020729
  H       2.631034      0.199019     -1.081046
  H      -0.251721      3.263904      3.034623
  H       2.094057      3.587058      2.310539
  H       3.038329      2.056775      0.527807
34
Coordinates from ORCA-job 2 E -878.192136887832
  C      -3.306572     -1.106869     -0.226713
  C      -2.753540     -2.062565     -1.083616
  C      -1.417391     -1.942026     -1.449047
  C      -2.527968     -0.050470      0.276822
  C      -1.122611      0.051035      0.020797
  O      -3.232702      0.831261      1.038003
  C      -0.590107     -0.908499     -0.928091
  C       0.758638     -0.831881     -1.303002
  C       1.596949      0.138883     -0.752634
  C      -0.233539      0.966318      0.680360
  C       1.146712      1.027191      0.246617
  N      -0.693658      1.749749      1.695624
  C       0.154327      2.657003      2.231476
  C       1.476480      2.831898      1.834036
  C       1.999672      1.993246      0.841737
  C      -3.210025      2.201814      0.749238
  O      -2.846173      2.621643     -0.328706
  N      -3.753181      2.893065      1.766814
  C      -4.049046      2.281736      3.063404
  C      -3.867571      4.343796      1.651100
  H      -3.145506      4.843106      2.304303
  H      -4.873912      4.657174      1.936578
  H      -3.679166      4.638447      0.622794
  H      -3.133014      1.980980      3.577052
  H      -4.691723      1.409536      2.946714
  H      -4.570558      3.017636      3.672849
  H      -0.974853     -2.655024     -2.136665
  H      -4.359071     -1.121797      0.030402
  H      -3.366785     -2.861009     -1.482941
  H       1.150752     -1.538417     -2.026429
  H       2.628741      0.204511     -1.084112
  H      -0.254931      3.257613      3.040249
  H       2.093057      3.581219      2.318624
  H       3.036437      2.057528      0.530743
34
Coordinates from ORCA-job 2 E -878.192164021331
  C      -3.306637     -1.109569     -0.225074
  C      -2.753037     -2.064483     -1.082355
  C      -1.417476     -1.942210     -1.449912
  C      -2.528857     -0.051618      0.277498
  C      -1.123011      0.049940      0.020696
  O      -3.235000      0.829590      1.037864
  C      -0.590729     -0.907630     -0.929204
  C       0.757346     -0.829271     -1.306363
  C       1.595601      0.141859     -0.755981
  C      -0.233623      0.965285      0.680316
  C       1.145453      1.027994      0.245557
  N      -0.693855      1.745985      1.697115
  C       0.153668      2.652612      2.235503
  C       1.475386      2.829367      1.837439
  C       1.998515      1.993551      0.842203
  C      -3.210660      2.200573      0.749766
  O      -2.848412      2.619383     -0.329171
  N      -3.751445      2.893922      1.767107
  C      -4.052620      2.285423      3.063499
  C      -3.859853      4.345084      1.649878
  H      -3.125727      4.842068      2.291491
  H      -4.860316      4.663939      1.948960
  H      -3.683627      4.636923      0.618632
  H      -3.137265      2.021545      3.599029
  H      -4.660563      1.389778      2.941981
  H      -4.612570      3.007864      3.654737
  H      -0.974817     -2.653798     -2.138831
  H      -4.358756     -1.125365      0.033386
  H      -3.365475     -2.864262     -1.480288
  H       1.148398     -1.534615     -2.031521
  H       2.627255      0.209182     -1.087493
  H      -0.256080      3.250448      3.045989
  H       2.092561      3.577658      2.322883
  H       3.034386      2.060677      0.529044
34
Coordinates from ORCA-job 2 E -878.192237653568
  C      -3.307293     -1.115626     -0.223997
  C      -2.752096     -2.068826     -1.081760
  C      -1.417568     -1.943345     -1.452254
  C      -2.531706     -0.054827      0.277356
  C      -1.125447      0.047573      0.019615
  O      -3.240878      0.824853      1.036202
  C      -0.592638     -0.906306     -0.931788
  C       0.754434     -0.824681     -1.311950
  C       1.591987      0.147547     -0.761408
  C      -0.236128      0.962721      0.680122
  C       1.140766      1.030130      0.243189
  N      -0.697259      1.737306      1.700155
  C       0.148495      2.644045      2.242547
  C       1.468840      2.826064      1.842527
  C       1.992561      1.996279      0.841914
  C      -3.212844      2.196642      0.750788
  O      -2.851255      2.614099     -0.329058
  N      -3.749764      2.894437      1.767129
  C      -4.060639      2.294013      3.064090
  C      -3.835366      4.347187      1.650148
  H      -3.068982      4.832039      2.263158
  H      -4.818209      4.683769      1.984474
  H      -3.689132      4.634508      0.612952
  H      -3.154627      2.137174      3.656707
  H      -4.565471      1.338567      2.936979
  H      -4.723344      2.970097      3.601878
  H      -0.974020     -2.652842     -2.142585
  H      -4.358979     -1.133340      0.035908
  H      -3.362858     -2.870965     -1.477602
  H       1.143654     -1.528593     -2.039417
  H       2.623581      0.218710     -1.092039
  H      -0.262397      3.235925      3.056627
  H       2.086151      3.573467      2.329204
  H       3.026594      2.070029      0.524568
34
Coordinates from ORCA-job 2 E -878.192304630393
  C      -3.307740     -1.117651     -0.226538
  C      -2.751944     -2.069986     -1.084558
  C      -1.417598     -1.944155     -1.455199
  C      -2.533082     -0.056242      0.275142
  C      -1.126875      0.046582      0.017193
  O      -3.243734      0.821266      1.034976
  C      -0.593507     -0.906218     -0.934420
  C       0.753528     -0.824568     -1.314526
  C       1.591236      0.147752     -0.763796
  C      -0.237251      0.960805      0.678528
  C       1.138927      1.029990      0.240644
  N      -0.698556      1.732092      1.700397
  C       0.146303      2.639415      2.244009
  C       1.465723      2.824317      1.842350
  C       1.989642      1.997181      0.839566
  C      -3.214379      2.193765      0.754309
  O      -2.850341      2.612426     -0.324387
  N      -3.754531      2.893547      1.768144
  C      -4.070640      2.302202      3.067135
  C      -3.818822      4.347539      1.653771
  H      -3.027229      4.819380      2.244894
  H      -4.786093      4.698957      2.016012
  H      -3.695833      4.633737      0.613219
  H      -3.185407      2.254352      3.709437
  H      -4.467498      1.297809      2.945201
  H      -4.826012      2.921011      3.549724
  H      -0.973451     -2.653673     -2.145035
  H      -4.359437     -1.136250      0.033189
  H      -3.362411     -2.872627     -1.479916
  H       1.141160     -1.529379     -2.041948
  H       2.623269      0.220245     -1.092621
  H      -0.264818      3.228192      3.060121
  H       2.082784      3.571864      2.329185
  H       3.022780      2.074151      0.520180
34
Coordinates from ORCA-job 2 E -878.192385122226
  C      -3.307831     -1.112231     -0.234845
  C      -2.753206     -2.065122     -1.092901
  C      -1.417326     -1.944340     -1.458082
  C      -2.531677     -0.055100      0.270849
  C      -1.126493      0.047539      0.014372
  O      -3.240760      0.819700      1.036017
  C      -0.592453     -0.908629     -0.935634
  C       0.756087     -0.832053     -1.310603
  C       1.595262      0.139088     -0.760296
  C      -0.236035      0.959617      0.676108
  C       1.141829      1.026611      0.238274
  N      -0.695717      1.732262      1.697995
  C       0.149339      2.641948      2.236571
  C       1.467999      2.827143      1.832105
  C       1.991169      1.996690      0.832655
  C      -3.214356      2.191827      0.761560
  O      -2.842526      2.615208     -0.312867
  N      -3.768600      2.889910      1.770269
  C      -4.082454      2.307475      3.073169
  C      -3.816999      4.344745      1.662128
  H      -3.016742      4.804832      2.250854
  H      -4.778164      4.704698      2.031928
  H      -3.697228      4.634504      0.622116
  H      -3.217864      2.342438      3.744211
  H      -4.397766      1.274236      2.963363
  H      -4.898565      2.877690      3.516849
  H      -0.973206     -2.657544     -2.144176
  H      -4.360510     -1.129829      0.021082
  H      -3.366113     -2.864381     -1.491352
  H       1.142422     -1.541721     -2.034025
  H       2.628321      0.209103     -1.086363
  H      -0.259836      3.232236      3.052642
  H       2.083389      3.577693      2.316453
  H       3.024767      2.071587      0.513954
34
Coordinates from ORCA-job 2 E -878.192454403709
  C      -3.312056     -1.109371     -0.250472
  C      -2.755862     -2.062103     -1.107878
  C      -1.417666     -1.944603     -1.464268
  C      -2.535928     -0.056123      0.260796
  C      -1.131799      0.047911      0.009217
  O      -3.242886      0.816786      1.030254
  C      -0.593676     -0.911285     -0.937585
  C       0.757697     -0.838357     -1.302552
  C       1.595210      0.131382     -0.748263
  C      -0.244643      0.959635      0.674458
  C       1.137267      1.023206      0.243757
  N      -0.708267      1.736535      1.692198
  C       0.135411      2.647551      2.229350
  C       1.456200      2.829892      1.830623
  C       1.983411      1.994780      0.838483
  C      -3.221013      2.187787      0.757986
  O      -2.851618      2.614689     -0.315802
  N      -3.775004      2.884783      1.768573
  C      -4.058732      2.315033      3.083088
  C      -3.813328      4.340117      1.664755
  H      -2.997165      4.792490      2.237635
  H      -4.763372      4.705265      2.057733
  H      -3.716317      4.632544      0.623122
  H      -3.209077      2.441076      3.762511
  H      -4.286518      1.257411      2.998007
  H      -4.924783      2.828315      3.502590
  H      -0.971488     -2.660434     -2.146390
  H      -4.366145     -1.126633     -0.000238
  H      -3.369348     -2.858053     -1.511892
  H       1.147539     -1.551032     -2.021138
  H       2.630096      0.198761     -1.069070
  H      -0.275939      3.242320      3.041171
  H       2.068091      3.582614      2.315874
  H       3.019870      2.064942      0.527751
34
Coordinates from ORCA-job 2 E -878.192481609349
  C      -3.313019     -1.106430     -0.253228
  C      -2.758039     -2.058451     -1.112637
  C      -1.419140     -1.942136     -1.467210
  C      -2.534906     -0.056390      0.261313
  C      -1.130503      0.047131      0.010684
  O      -3.240279      0.817003      1.032080
  C      -0.593375     -0.912143     -0.937781
  C       0.758262     -0.840145     -1.301958
  C       1.596388      0.127782     -0.746191
  C      -0.242826      0.958358      0.676441
  C       1.140279      1.019192      0.246839
  N      -0.705356      1.738770      1.692753
  C       0.140255      2.648013      2.229132
  C       1.462193      2.826299      1.832342
  C       1.988360      1.988560      0.842120
  C      -3.219685      2.187565      0.759002
  O      -2.848951      2.615379     -0.313751
  N      -3.779769      2.883060      1.767750
  C      -4.050502      2.319076      3.087596
  C      -3.830882      4.337864      1.659836
  H      -3.021161      4.799448      2.234628
  H      -4.785512      4.694760      2.049993
  H      -3.735867      4.629062      0.617732
  H      -3.197868      2.460977      3.759606
  H      -4.267487      1.258236      3.012110
  H      -4.918614      2.826798      3.510161
  H      -0.974021     -2.656939     -2.151254
  H      -4.367384     -1.122436     -0.003912
  H      -3.372762     -2.851625     -1.520213
  H       1.149072     -1.551188     -2.021705
  H       2.630901      0.193447     -1.068805
  H      -0.270256      3.246290      3.038938
  H       2.074654      3.578306      2.317956
  H       3.025961      2.054338      0.534011
34
Coordinates from ORCA-job 2 E -878.192414175616
  C      -3.317429     -1.117584     -0.251289
  C      -2.762077     -2.061822     -1.119677
  C      -1.425227     -1.934946     -1.482114
  C      -2.539043     -0.066604      0.266236
  C      -1.132098      0.038041      0.014224
  O      -3.246254      0.807844      1.033037
  C      -0.598028     -0.908550     -0.945751
  C       0.750849     -0.825823     -1.319486
  C       1.587289      0.138587     -0.755570
  C      -0.244765      0.949340      0.684618
  C       1.136281      1.012851      0.255903
  N      -0.708718      1.726246      1.703132
  C       0.139760      2.624895      2.254035
  C       1.464595      2.798497      1.866155
  C       1.990240      1.969963      0.866433
  C      -3.219274      2.179936      0.756568
  O      -2.853705      2.602568     -0.318984
  N      -3.776475      2.882902      1.762375
  C      -4.020112      2.353136      3.100557
  C      -3.844154      4.335730      1.629636
  H      -3.002332      4.816068      2.140895
  H      -4.772943      4.690013      2.080064
  H      -3.826080      4.609885      0.578985
  H      -3.250639      2.698293      3.800282
  H      -4.024069      1.268973      3.086999
  H      -4.991034      2.710019      3.449076
  H      -0.981768     -2.636373     -2.181021
  H      -4.370292     -1.135262      0.004114
  H      -3.374186     -2.854960     -1.531214
  H       1.144258     -1.520703     -2.053476
  H       2.619219      0.209382     -1.085850
  H      -0.273464      3.220799      3.064230
  H       2.081602      3.540486      2.361273
  H       3.028234      2.036003      0.559986
34
Coordinates from ORCA-job 2 E -878.192501222581
  C      -3.315691     -1.110946     -0.253754
  C      -2.760354     -2.059210     -1.117439
  C      -1.422306     -1.937540     -1.475678
  C      -2.537607     -0.060188      0.261804
  C      -1.131562      0.043292      0.011419
  O      -3.243502      0.813614      1.031580
  C      -0.595801     -0.909746     -0.942442
  C       0.754816     -0.832529     -1.310329
  C       1.591950      0.132914     -0.748999
  C      -0.244662      0.954053      0.680302
  C       1.138040      1.015312      0.253682
  N      -0.708949      1.732818      1.697149
  C       0.137907      2.635468      2.242736
  C       1.462471      2.810111      1.853407
  C       1.989324      1.976714      0.858854
  C      -3.220466      2.184925      0.755230
  O      -2.857100      2.609587     -0.320804
  N      -3.773539      2.884166      1.765233
  C      -4.021761      2.336569      3.096218
  C      -3.847781      4.336931      1.640088
  H      -3.026817      4.817865      2.182370
  H      -4.793836      4.684567      2.058811
  H      -3.794078      4.616905      0.592025
  H      -3.189155      2.562404      3.770425
  H      -4.156151      1.260758      3.048997
  H      -4.928989      2.790534      3.498289
  H      -0.977821     -2.645597     -2.167146
  H      -4.369141     -1.127861     -0.000760
  H      -3.373298     -2.852828     -1.526701
  H       1.148438     -1.534774     -2.037120
  H       2.625476      0.199822     -1.074798
  H      -0.274709      3.232449      3.052454
  H       2.077047      3.555995      2.345705
  H       3.027768      2.041275      0.553571
34
Coordinates from ORCA-job 2 E -878.192504137462
  C      -3.315345     -1.109304     -0.255799
  C      -2.760169     -2.057666     -1.119382
  C      -1.421705     -1.937457     -1.476118
  C      -2.537265     -0.059527      0.260799
  C      -1.131465      0.044050      0.010637
  O      -3.243244      0.813041      1.032314
  C      -0.595393     -0.909871     -0.942606
  C       0.755696     -0.834173     -1.308795
  C       1.593404      0.130982     -0.747612
  C      -0.244299      0.953989      0.679532
  C       1.138760      1.015132      0.253076
  N      -0.708312      1.732557      1.696620
  C       0.138142      2.636046      2.241093
  C       1.462458      2.811537      1.850914
  C       1.989296      1.977548      0.856923
  C      -3.221484      2.184167      0.757030
  O      -2.858149      2.609272     -0.319078
  N      -3.774604      2.883737      1.766778
  C      -4.022795      2.336916      3.097969
  C      -3.848586      4.336248      1.641280
  H      -3.029091      4.816916      2.185892
  H      -4.795916      4.684392      2.056564
  H      -3.791011      4.615887      0.593305
  H      -3.188396      2.559806      3.771087
  H      -4.160695      1.261775      3.050586
  H      -4.928243      2.793482      3.501120
  H      -0.977021     -2.646742     -2.166187
  H      -4.369031     -1.126162     -0.003769
  H      -3.373572     -2.850754     -1.529027
  H       1.148859     -1.538157     -2.034154
  H       2.627394      0.197005     -1.071969
  H      -0.274054      3.232579      3.051344
  H       2.076359      3.558320      2.342699
  H       3.027637      2.042260      0.551314
34
Coordinates from ORCA-job 2 E -878.192504332507
  C      -3.315385     -1.108701     -0.256233
  C      -2.760461     -2.056847     -1.120206
  C      -1.421934     -1.936870     -1.476849
  C      -2.537204     -0.059274      0.260844
  C      -1.131350      0.044156      0.010661
  O      -3.243376      0.812907      1.032772
  C      -0.595511     -0.909630     -0.942889
  C       0.755633     -0.834247     -1.308883
  C       1.593744      0.130451     -0.747370
  C      -0.243935      0.953647      0.679622
  C       1.139191      1.014616      0.253379
  N      -0.707828      1.732125      1.696862
  C       0.138781      2.635206      2.241679
  C       1.463198      2.810569      1.851681
  C       1.989873      1.976662      0.857424
  C      -3.221573      2.184004      0.757513
  O      -2.858725      2.608916     -0.318932
  N      -3.773762      2.883913      1.767340
  C      -4.020884      2.338057      3.099069
  C      -3.851331      4.336026      1.639970
  H      -3.032554      4.819406      2.183277
  H      -4.799191      4.682552      2.055400
  H      -3.795021      4.614429      0.591604
  H      -3.187694      2.565404      3.772262
  H      -4.154112      1.262247      3.053119
  H      -4.928476      2.791401      3.501028
  H      -0.977372     -2.646014     -2.167131
  H      -4.369075     -1.125425     -0.004203
  H      -3.374025     -2.849672     -1.530123
  H       1.148625     -1.538180     -2.034381
  H       2.627820      0.196081     -1.071492
  H      -0.273313      3.231558      3.052115
  H       2.077210      3.557048      2.343775
  H       3.028177      2.041308      0.551677
34
Coordinates from ORCA-job 2 E -878.192502226129
  C      -3.315628     -1.107834     -0.257372
  C      -2.761054     -2.055687     -1.121856
  C      -1.422391     -1.936064     -1.478215
  C      -2.537311     -0.058958      0.260549
  C      -1.131399      0.044175      0.010580
  O      -3.243731      0.812722      1.033118
  C      -0.595822     -0.909427     -0.943378
  C       0.755464     -0.834474     -1.308916
  C       1.594109      0.129493     -0.746745
  C      -0.243755      0.953022      0.679737
  C       1.139574      1.013680      0.254056
  N      -0.707715      1.731424      1.697113
  C       0.139129      2.633786      2.242614
  C       1.463785      2.808843      1.853203
  C       1.990384      1.975092      0.858630
  C      -3.221852      2.183834      0.757856
  O      -2.860513      2.608371     -0.319367
  N      -3.771696      2.884347      1.768272
  C      -4.016590      2.340248      3.101048
  C      -3.855239      4.335803      1.637983
  H      -3.037107      4.823623      2.178288
  H      -4.803501      4.679554      2.054825
  H      -3.802164      4.612288      0.588940
  H      -3.187996      2.580157      3.775546
  H      -4.136122      1.262702      3.058419
  H      -4.930825      2.783721      3.499079
  H      -0.977953     -2.644950     -2.168806
  H      -4.369343     -1.124316     -0.005445
  H      -3.374874     -2.848024     -1.532323
  H       1.148274     -1.538248     -2.034672
  H       2.628372      0.194511     -1.070374
  H      -0.272970      3.230012      3.053152
  H       2.077908      3.554829      2.345888
  H       3.028708      2.039574      0.552954
34
Coordinates from ORCA-job 2 E -878.192502268976
  C      -3.315563     -1.107503     -0.257212
  C      -2.761249     -2.055399     -1.121823
  C      -1.422590     -1.935932     -1.478286
  C      -2.537062     -0.058802      0.260820
  C      -1.131161      0.044128      0.010787
  O      -3.243434      0.812898      1.033438
  C      -0.595850     -0.909489     -0.943363
  C       0.755386     -0.834624     -1.309127
  C       1.594258      0.129188     -0.747090
  C      -0.243261      0.952848      0.679774
  C       1.140009      1.013412      0.253816
  N      -0.706927      1.731273      1.697329
  C       0.140189      2.633444      2.242706
  C       1.464782      2.808378      1.853060
  C       1.991036      1.974674      0.858271
  C      -3.221358      2.184033      0.758312
  O      -2.859814      2.608579     -0.318859
  N      -3.771182      2.884574      1.768675
  C      -4.017392      2.340550      3.101227
  C      -3.856142      4.335889      1.637971
  H      -3.039123      4.824724      2.179027
  H      -4.805213      4.678697      2.053772
  H      -3.802190      4.612221      0.588934
  H      -3.191775      2.584911      3.777743
  H      -4.131684      1.262440      3.059229
  H      -4.934783      2.780077      3.496466
  H      -0.978320     -2.644754     -2.169060
  H      -4.369277     -1.123820     -0.005243
  H      -3.375278     -2.847533     -1.532369
  H       1.147916     -1.538371     -2.035059
  H       2.628474      0.194098     -1.070872
  H      -0.271673      3.229726      3.053332
  H       2.079106      3.554228      2.345687
  H       3.029303      2.039067      0.552363
