34
Coordinates from ORCA-job HBQ_ES E -878.302174348166
  C      -3.120872     -0.643755     -0.175099
  C      -2.675572     -1.733038     -0.922292
  C      -1.319498     -1.871432     -1.176912
  C      -2.212142      0.319910      0.286025
  C      -0.821131      0.276736     -0.034796
  O      -2.634981      1.243985      1.188551
  C      -0.376439     -0.907826     -0.735703
  C       0.984424     -1.089888     -0.996828
  C       1.915615     -0.134311     -0.596883
  C       0.117909      1.327632      0.247973
  C       1.520784      1.077812     -0.004167
  N      -0.305581      2.528067      0.721893
  C       0.623410      3.447407      1.057054
  C       1.994325      3.259612      0.932845
  C       2.460527      2.070937      0.370920
  C      -3.826677      1.938688      1.003537
  O      -4.343767      2.043656     -0.093500
  N      -4.254789      2.482239      2.152010
  C      -5.429012      3.347285      2.136411
  C      -3.604129      2.326494      3.450161
  H      -2.777229      1.630431      3.386931
  H      -4.332645      1.953276      4.172210
  H      -3.236280      3.294828      3.796543
  H      -5.866106      3.355464      1.144140
  H      -5.146047      4.363738      2.419321
  H      -6.162509      2.976639      2.854584
  H      -0.953767     -2.729252     -1.727370
  H      -4.159416     -0.561380      0.109019
  H      -3.378029     -2.481898     -1.260841
  H       1.308998     -1.986179     -1.509660
  H       2.971706     -0.311850     -0.761375
  H       0.238131      4.396316      1.416337
  H       2.674352      4.049411      1.224666
  H       3.514599      1.898076      0.198675
34
Coordinates from ORCA-job HBQ_ES E -878.302174257463
  C      -3.120659     -0.643322     -0.173613
  C      -2.675840     -1.732906     -0.920668
  C      -1.319892     -1.871464     -1.175967
  C      -2.211598      0.320515      0.286625
  C      -0.820799      0.277051     -0.034818
  O      -2.633906      1.244961      1.188994
  C      -0.376535     -0.907748     -0.735693
  C       0.984298     -1.089896     -0.997169
  C       1.915686     -0.134257     -0.597727
  C       0.118422      1.327832      0.247694
  C       1.521238      1.078036     -0.004979
  N      -0.304937      2.528187      0.722008
  C       0.624143      3.447445      1.057123
  C       1.995025      3.259675      0.932171
  C       2.461095      2.071229      0.369675
  C      -3.825251      1.939962      1.003161
  O      -4.341126      2.046046     -0.094332
  N      -4.255014      2.481961      2.151756
  C      -5.429263      3.347003      2.135739
  C      -3.605995      2.325082      3.450558
  H      -2.779442      1.628540      3.387922
  H      -4.335692      1.951858      4.171413
  H      -3.238021      3.292974      3.798000
  H      -5.863811      3.357941      1.142396
  H      -5.146873      4.362643      2.422102
  H      -6.164484      2.974446      2.851133
  H      -0.954622     -2.729569     -1.726279
  H      -4.159084     -0.560777      0.110969
  H      -3.378563     -2.481771     -1.258621
  H       1.308688     -1.986402     -1.509726
  H       2.971683     -0.311863     -0.762731
  H       0.239025      4.396271      1.416765
  H       2.675158      4.049508      1.223652
  H       3.515106      1.898639      0.196848
34
Coordinates from ORCA-job HBQ_ES E -878.302179304446
  C      -3.119949     -0.643158     -0.169799
  C      -2.676147     -1.733035     -0.917028
  C      -1.320521     -1.871514     -1.174271
  C      -2.210294      0.321080      0.288660
  C      -0.820013      0.277456     -0.034559
  O      -2.631948      1.245912      1.191006
  C      -0.376632     -0.907572     -0.735931
  C       0.984081     -1.089443     -0.998670
  C       1.915800     -0.133641     -0.600304
  C       0.119544      1.328115      0.247405
  C       1.522217      1.078786     -0.007049
  N      -0.303550      2.528206      0.722817
  C       0.625650      3.447347      1.057805
  C       1.996443      3.259794      0.930945
  C       2.462268      2.072119      0.366696
  C      -3.823086      1.940551      1.003175
  O      -4.335463      2.049517     -0.095662
  N      -4.256101      2.480653      2.151469
  C      -5.429292      3.347232      2.133616
  C      -3.610649      2.322340      3.451820
  H      -2.786587      1.622587      3.391657
  H      -4.343662      1.952284      4.170935
  H      -3.239960      3.289048      3.799644
  H      -5.856386      3.366159      1.137192
  H      -5.147254      4.360258      2.429371
  H      -6.170059      2.970627      2.841107
  H      -0.956308     -2.729986     -1.724710
  H      -4.158089     -0.560590      0.116056
  H      -3.379390     -2.481938     -1.253742
  H       1.308129     -1.986175     -1.511033
  H       2.971567     -0.311178     -0.766854
  H       0.240865      4.395833      1.418629
  H       2.676790      4.049704      1.221733
  H       3.516144      1.900451      0.192253
34
Coordinates from ORCA-job HBQ_ES E -878.302182419288
  C      -3.119428     -0.642369     -0.167608
  C      -2.676347     -1.732482     -0.914889
  C      -1.320929     -1.871120     -1.173182
  C      -2.209353      0.321922      0.289942
  C      -0.819321      0.277968     -0.034155
  O      -2.630845      1.247202      1.192104
  C      -0.376626     -0.907305     -0.735709
  C       0.983894     -1.089266     -0.999336
  C       1.916000     -0.133592     -0.601698
  C       0.120674      1.328442      0.247203
  C       1.523175      1.078965     -0.008234
  N      -0.301884      2.528591      0.722984
  C       0.627656      3.447494      1.057589
  C       1.998324      3.259665      0.929773
  C       2.463624      2.072073      0.364926
  C      -3.821924      1.941668      1.003140
  O      -4.333546      2.050035     -0.096122
  N      -4.257263      2.480110      2.151333
  C      -5.430761      3.346333      2.132712
  C      -3.613384      2.321323      3.452409
  H      -2.791029      1.619413      3.393635
  H      -4.348079      1.953589      4.170978
  H      -3.240664      3.287368      3.799955
  H      -5.852473      3.371358      1.134128
  H      -5.150259      4.357502      2.436117
  H      -6.175188      2.965399      2.834051
  H      -0.957410     -2.729810     -1.723754
  H      -4.157384     -0.559653      0.118930
  H      -3.379972     -2.481347     -1.250889
  H       1.307521     -1.986117     -1.511768
  H       2.971605     -0.311390     -0.769047
  H       0.243327      4.395964      1.418935
  H       2.679041      4.049402      1.220205
  H       3.517386      1.900496      0.189720
34
Coordinates from ORCA-job HBQ_ES E -878.302185737936
  C      -3.118833     -0.643525     -0.165559
  C      -2.675848     -1.733564     -0.912981
  C      -1.320568     -1.871547     -1.172348
  C      -2.208943      0.321350      0.291110
  C      -0.819116      0.277785     -0.033667
  O      -2.630746      1.246874      1.193203
  C      -0.376438     -0.907391     -0.735491
  C       0.983918     -1.088682     -1.000195
  C       1.915928     -0.132715     -0.603222
  C       0.120756      1.328525      0.247111
  C       1.523174      1.079576     -0.009279
  N      -0.301828      2.528391      0.723539
  C       0.627635      3.447501      1.057722
  C       1.998254      3.260181      0.928869
  C       2.463543      2.072821      0.363448
  C      -3.821584      1.941660      1.003322
  O      -4.332013      2.050480     -0.096482
  N      -4.257941      2.479781      2.151235
  C      -5.429833      3.348177      2.131723
  C      -3.615562      2.319451      3.452895
  H      -2.797957      1.611844      3.395916
  H      -4.353050      1.957913      4.171703
  H      -3.236572      3.283628      3.798922
  H      -5.844416      3.382462      1.130425
  H      -5.149128      4.356088      2.445485
  H      -6.180033      2.963157      2.824701
  H      -0.957183     -2.730124     -1.723196
  H      -4.156595     -0.561348      0.121741
  H      -3.379392     -2.482842     -1.248266
  H       1.307548     -1.985315     -1.513027
  H       2.971471     -0.310238     -0.771314
  H       0.243279      4.395743      1.419667
  H       2.678961      4.049991      1.219147
  H       3.517272      1.901744      0.187522
34
Coordinates from ORCA-job HBQ_ES E -878.302195563255
  C      -3.117122     -0.648494     -0.159706
  C      -2.673890     -1.737900     -0.907883
  C      -1.318870     -1.873404     -1.170008
  C      -2.208198      0.317954      0.295174
  C      -0.818929      0.276594     -0.031513
  O      -2.631524      1.243543      1.197191
  C      -0.375742     -0.907752     -0.734627
  C       0.984170     -1.086541     -1.002708
  C       1.915564     -0.129279     -0.607731
  C       0.120120      1.328478      0.247817
  C       1.522301      1.081882     -0.012082
  N      -0.302953      2.527393      0.726032
  C       0.625969      3.447760      1.058145
  C       1.996502      3.262740      0.925971
  C       2.462056      2.076054      0.359010
  C      -3.821461      1.939407      1.004582
  O      -4.329000      2.048093     -0.096666
  N      -4.259200      2.479004      2.151139
  C      -5.424480      3.356092      2.128377
  C      -3.621622      2.313258      3.454577
  H      -2.824502      1.582094      3.404728
  H      -4.369522      1.978429      4.175412
  H      -3.216015      3.269300      3.793152
  H      -5.812714      3.424388      1.118299
  H      -5.143055      4.351194      2.479667
  H      -6.195885      2.957593      2.790024
  H      -0.955206     -2.731162     -1.721962
  H      -4.154479     -0.568152      0.129613
  H      -3.376781     -2.488520     -1.241569
  H       1.308095     -1.982170     -1.517144
  H       2.970981     -0.305330     -0.778230
  H       0.241076      4.395304      1.421429
  H       2.676817      4.053218      1.215323
  H       3.515659      1.906761      0.180545
34
Coordinates from ORCA-job HBQ_ES E -878.302197597030
  C      -3.117528     -0.649605     -0.161290
  C      -2.673571     -1.738792     -0.909408
  C      -1.318363     -1.873914     -1.170725
  C      -2.209097      0.316967      0.294229
  C      -0.819633      0.276228     -0.031883
  O      -2.632644      1.242038      1.196441
  C      -0.375722     -0.907903     -0.734747
  C       0.984360     -1.086511     -1.002146
  C       1.915366     -0.129013     -0.606612
  C       0.118932      1.328421      0.247829
  C       1.521276      1.082041     -0.011234
  N      -0.304646      2.527244      0.725830
  C       0.623958      3.447944      1.058019
  C       1.994608      3.263312      0.926600
  C       2.460636      2.076511      0.360245
  C      -3.822542      1.938110      1.004759
  O      -4.331832      2.045599     -0.095788
  N      -4.257840      2.479764      2.151264
  C      -5.422603      3.357474      2.129022
  C      -3.619201      2.313741      3.454145
  H      -2.824865      1.579534      3.404395
  H      -4.367472      1.982600      4.176285
  H      -3.209695      3.268732      3.790976
  H      -5.810818      3.426710      1.118978
  H      -5.140596      4.352145      2.481001
  H      -6.194523      2.959137      2.790196
  H      -0.953870     -2.731479     -1.722412
  H      -4.155030     -0.569453      0.127537
  H      -3.376005     -2.489608     -1.243606
  H       1.308724     -1.982068     -1.516414
  H       2.970937     -0.304702     -0.776437
  H       0.238588      4.395479      1.420831
  H       2.674545      4.054038      1.216117
  H       3.514326      1.907107      0.182382
34
Coordinates from ORCA-job HBQ_ES E -878.302196373368
  C      -3.118196     -0.650249     -0.163557
  C      -2.673405     -1.739384     -0.911330
  C      -1.317924     -1.874517     -1.171118
  C      -2.210148      0.316180      0.293042
  C      -0.820366      0.275891     -0.032217
  O      -2.633608      1.240552      1.195526
  C      -0.375686     -0.908176     -0.734468
  C       0.984690     -1.086988     -1.000497
  C       1.915269     -0.129134     -0.604430
  C       0.117664      1.328423      0.247930
  C       1.520196      1.082187     -0.010066
  N      -0.306604      2.527537      0.724683
  C       0.621604      3.448834      1.056493
  C       1.992421      3.264516      0.926204
  C       2.459088      2.077319      0.361277
  C      -3.823059      1.937324      1.004831
  O      -4.334106      2.044298     -0.094917
  N      -4.255598      2.480995      2.151497
  C      -5.420045      3.359038      2.130134
  C      -3.617022      2.312891      3.454089
  H      -2.826857      1.574162      3.404576
  H      -4.366852      1.986404      4.176725
  H      -3.202074      3.265808      3.790079
  H      -5.807533      3.430354      1.119960
  H      -5.137947      4.352932      2.484162
  H      -6.192926      2.959952      2.789764
  H      -0.952403     -2.732067     -1.722124
  H      -4.155947     -0.569876      0.124318
  H      -3.375402     -2.490205     -1.246406
  H       1.309565     -1.982770     -1.514012
  H       2.971034     -0.304419     -0.773337
  H       0.235626      4.396574      1.418107
  H       2.671848      4.055824      1.215270
  H       3.512862      1.907619      0.184189
34
Coordinates from ORCA-job HBQ_ES E -878.302196659110
  C      -3.118160     -0.650524     -0.163302
  C      -2.673296     -1.739707     -0.910967
  C      -1.317806     -1.874803     -1.170717
  C      -2.210132      0.315981      0.293208
  C      -0.820380      0.275823     -0.032245
  O      -2.633480      1.240354      1.195676
  C      -0.375600     -0.908307     -0.734285
  C       0.984813     -1.087012     -1.000280
  C       1.915263     -0.128935     -0.604382
  C       0.117460      1.328580      0.247626
  C       1.520027      1.082483     -0.010282
  N      -0.307023      2.527658      0.724329
  C       0.621059      3.449134      1.056009
  C       1.991907      3.265044      0.925567
  C       2.458775      2.077883      0.360795
  C      -3.822771      1.937237      1.004843
  O      -4.333911      2.044082     -0.094865
  N      -4.254990      2.481404      2.151436
  C      -5.419102      3.359875      2.130065
  C      -3.617445      2.311821      3.454323
  H      -2.830731      1.569329      3.405805
  H      -4.369085      1.989421      4.176902
  H      -3.198213      3.263087      3.789677
  H      -5.803179      3.435719      1.118926
  H      -5.137603      4.352086      2.489207
  H      -6.194444      2.958492      2.785437
  H      -0.952160     -2.732414     -1.721546
  H      -4.155920     -0.570085      0.124585
  H      -3.375248     -2.490577     -1.246010
  H       1.309809     -1.982906     -1.513521
  H       2.971056     -0.304039     -0.773297
  H       0.234934      4.396817      1.417597
  H       2.671187      4.056565      1.214404
  H       3.512551      1.908265      0.183662
34
Coordinates from ORCA-job HBQ_ES E -878.302195895446
  C      -3.117195     -0.653219     -0.159105
  C      -2.671915     -1.742915     -0.905792
  C      -1.316458     -1.877403     -1.165960
  C      -2.209447      0.314301      0.295952
  C      -0.820038      0.275228     -0.031265
  O      -2.632348      1.238698      1.198458
  C      -0.374608     -0.909479     -0.731778
  C       0.985906     -1.087016     -0.998396
  C       1.915373     -0.126841     -0.604995
  C       0.116444      1.329883      0.245771
  C       1.519096      1.085381     -0.013056
  N      -0.309583      2.529069      0.721112
  C       0.617495      3.452515      1.050135
  C       1.988497      3.270431      0.917754
  C       2.456758      2.083223      0.354586
  C      -3.819573      1.937753      1.005280
  O      -4.328738      2.046139     -0.095169
  N      -4.251478      2.483782      2.151273
  C      -5.410354      3.369014      2.128630
  C      -3.625424      2.298491      3.457517
  H      -2.871732      1.521797      3.418089
  H      -4.393698      2.013595      4.178208
  H      -3.166921      3.232929      3.788887
  H      -5.758689      3.491209      1.109126
  H      -5.134225      4.342492      2.539026
  H      -6.210985      2.947089      2.739522
  H      -0.950098     -2.735523     -1.715544
  H      -4.154833     -0.572745      0.129531
  H      -3.373508     -2.494544     -1.239802
  H       1.311703     -1.983661     -1.509802
  H       2.971269     -0.300443     -0.774788
  H       0.230291      4.400012      1.410981
  H       2.666698      4.063918      1.203784
  H       3.510478      1.914671      0.176211
34
Coordinates from ORCA-job HBQ_ES E -878.302197911194
  C      -3.117940     -0.650454     -0.162417
  C      -2.673167     -1.739838     -0.909828
  C      -1.317711     -1.875063     -1.169668
  C      -2.209819      0.316147      0.293744
  C      -0.820132      0.275885     -0.032002
  O      -2.633024      1.240656      1.196180
  C      -0.375412     -0.908488     -0.733677
  C       0.984989     -1.087163     -0.999769
  C       1.915376     -0.128800     -0.604444
  C       0.117627      1.328883      0.247240
  C       1.520176      1.082883     -0.010867
  N      -0.306986      2.528139      0.723410
  C       0.621019      3.449883      1.054545
  C       1.991870      3.265906      0.923830
  C       2.458861      2.078630      0.359482
  C      -3.822031      1.937831      1.004878
  O      -4.332544      2.045294     -0.095059
  N      -4.254659      2.481760      2.151428
  C      -5.418180      3.361016      2.129849
  C      -3.619369      2.309119      3.455020
  H      -2.837529      1.561370      3.407849
  H      -4.373929      1.992022      4.176870
  H      -3.194254      3.257773      3.790385
  H      -5.796352      3.444513      1.117074
  H      -5.137774      4.350332      2.497631
  H      -6.197650      2.955752      2.777940
  H      -0.952150     -2.732867     -1.720261
  H      -4.155656     -0.569896      0.125630
  H      -3.375189     -2.490760     -1.244607
  H       1.310007     -1.983267     -1.512634
  H       2.971162     -0.303824     -0.773507
  H       0.234847      4.397641      1.415874
  H       2.671067      4.057714      1.212104
  H       3.512615      1.909102      0.182153
34
Coordinates from ORCA-job HBQ_ES E -878.302198384121
  C      -3.118000     -0.649981     -0.162744
  C      -2.673317     -1.739398     -0.910153
  C      -1.317865     -1.874798     -1.169937
  C      -2.209790      0.316512      0.293468
  C      -0.820080      0.276017     -0.032130
  O      -2.632965      1.241116      1.195853
  C      -0.375468     -0.908402     -0.733809
  C       0.984926     -1.087259     -0.999780
  C       1.915420     -0.129089     -0.604295
  C       0.117833      1.328852      0.247240
  C       1.520377      1.082613     -0.010682
  N      -0.306628      2.528177      0.723339
  C       0.621483      3.449729      1.054706
  C       1.992319      3.265470      0.924264
  C       2.459185      2.078140      0.359920
  C      -3.822232      1.937995      1.004793
  O      -4.332864      2.045402     -0.095098
  N      -4.254969      2.481630      2.151433
  C      -5.419076      3.360127      2.130081
  C      -3.618938      2.309970      3.454796
  H      -2.834402      1.565125      3.406803
  H      -4.372177      1.989609      4.176599
  H      -3.197139      3.259874      3.790804
  H      -5.800090      3.439973      1.118085
  H      -5.138486      4.350893      2.493846
  H      -6.196372      2.956324      2.781658
  H      -0.952451     -2.732633     -1.720580
  H      -4.155718     -0.569365      0.125244
  H      -3.375424     -2.490230     -1.244968
  H       1.309850     -1.983365     -1.512705
  H       2.971197     -0.304324     -0.773211
  H       0.235443      4.397558      1.415992
  H       2.671627      4.057102      1.212762
  H       3.512949      1.908467      0.182786
34
Coordinates from ORCA-job HBQ_ES E -878.302197340682
  C      -3.118083     -0.649653     -0.163103
  C      -2.673413     -1.739115     -0.910451
  C      -1.317953     -1.874633     -1.170115
  C      -2.209842      0.316817      0.293108
  C      -0.820107      0.276193     -0.032373
  O      -2.632986      1.241484      1.195433
  C      -0.375510     -0.908315     -0.733912
  C       0.984908     -1.087349     -0.999634
  C       1.915449     -0.129295     -0.603983
  C       0.117886      1.328933      0.247107
  C       1.520453      1.082479     -0.010494
  N      -0.306514      2.528350      0.723013
  C       0.621651      3.449770      1.054600
  C       1.992494      3.265274      0.924546
  C       2.459324      2.077868      0.360340
  C      -3.822623      1.937847      1.004730
  O      -4.333877      2.044656     -0.094931
  N      -4.254981      2.481683      2.151405
  C      -5.419659      3.359431      2.130427
  C      -3.618196      2.310694      3.454493
  H      -2.833295      1.566241      3.406297
  H      -4.370897      1.990138      4.176769
  H      -3.196709      3.260901      3.790033
  H      -5.801236      3.438793      1.118600
  H      -5.139517      4.350463      2.493807
  H      -6.196359      2.955286      2.782502
  H      -0.952569     -2.732526     -1.720690
  H      -4.155815     -0.568971      0.124808
  H      -3.375549     -2.489908     -1.245295
  H       1.309812     -1.983518     -1.512459
  H       2.971240     -0.304691     -0.772651
  H       0.235672      4.397679      1.415742
  H       2.671850      4.056801      1.213222
  H       3.513109      1.908026      0.183492
34
Coordinates from ORCA-job HBQ_ES E -878.302197623905
  C      -3.118080     -0.649429     -0.163112
  C      -2.673446     -1.738972     -0.910358
  C      -1.317990     -1.874604     -1.169983
  C      -2.209784      0.317021      0.293050
  C      -0.820044      0.276261     -0.032396
  O      -2.632848      1.241834      1.195274
  C      -0.375491     -0.908331     -0.733821
  C       0.984927     -1.087453     -0.999473
  C       1.915499     -0.129421     -0.603856
  C       0.117986      1.329003      0.246963
  C       1.520557      1.082431     -0.010502
  N      -0.306388      2.528499      0.722675
  C       0.621797      3.449897      1.054270
  C       1.992639      3.265290      0.924346
  C       2.459456      2.077809      0.360302
  C      -3.822571      1.938117      1.004657
  O      -4.333765      2.045115     -0.095014
  N      -4.255000      2.481744      2.151401
  C      -5.419837      3.359288      2.130559
  C      -3.618353      2.310448      3.454519
  H      -2.833325      1.566143      3.406194
  H      -4.371089      1.989559      4.176612
  H      -3.197052      3.260620      3.790392
  H      -5.801364      3.438815      1.118730
  H      -5.139891      4.350290      2.494173
  H      -6.196481      2.954846      2.782517
  H      -0.952680     -2.732561     -1.720510
  H      -4.155811     -0.568694      0.124769
  H      -3.375624     -2.489744     -1.245161
  H       1.309802     -1.983675     -1.512225
  H       2.971289     -0.304898     -0.772454
  H       0.235854      4.397872      1.415272
  H       2.672018      4.056804      1.213012
  H       3.513249      1.907906      0.183560
34
Coordinates from ORCA-job HBQ_ES E -878.302197748266
  C      -3.118091     -0.648824     -0.163137
  C      -2.673543     -1.738583     -0.910110
  C      -1.318089     -1.874522     -1.169583
  C      -2.209653      0.317543      0.292940
  C      -0.819893      0.276465     -0.032406
  O      -2.632535      1.242617      1.194960
  C      -0.375452     -0.908345     -0.733524
  C       0.984966     -1.087718     -0.999004
  C       1.915630     -0.129728     -0.603518
  C       0.118246      1.329197      0.246673
  C       1.520817      1.082338     -0.010536
  N      -0.306033      2.528915      0.721874
  C       0.622217      3.450285      1.053361
  C       1.993054      3.265411      0.923715
  C       2.459802      2.077709      0.360109
  C      -3.822409      1.938750      1.004503
  O      -4.333373      2.046251     -0.095223
  N      -4.255089      2.481788      2.151423
  C      -5.420181      3.359009      2.130853
  C      -3.618904      2.309615      3.454653
  H      -2.833597      1.565628      3.406021
  H      -4.371810      1.987889      4.176199
  H      -3.198049      3.259653      3.791454
  H      -5.801453      3.439097      1.118975
  H      -5.140609      4.349853      2.495180
  H      -6.196853      2.953905      2.782366
  H      -0.952933     -2.732650     -1.719947
  H      -4.155838     -0.567914      0.124630
  H      -3.375824     -2.489298     -1.244830
  H       1.309755     -1.984095     -1.511541
  H       2.971413     -0.305407     -0.771963
  H       0.236369      4.398445      1.413977
  H       2.672502      4.056913      1.212259
  H       3.513603      1.907637      0.183578
34
Coordinates from ORCA-job HBQ_ES E -878.302196854047
  C      -3.118187     -0.646911     -0.163517
  C      -2.673867     -1.737345     -0.909629
  C      -1.318387     -1.874250     -1.168464
  C      -2.209354      0.319191      0.292367
  C      -0.819515      0.277187     -0.032602
  O      -2.631732      1.244866      1.193915
  C      -0.375363     -0.908332     -0.732663
  C       0.985079     -1.088574     -0.997419
  C       1.916026     -0.130726     -0.602251
  C       0.118952      1.329838      0.245739
  C       1.521536      1.082045     -0.010533
  N      -0.305035      2.530235      0.719374
  C       0.623416      3.451526      1.050504
  C       1.994245      3.265818      0.921838
  C       2.460779      2.077370      0.359697
  C      -3.822056      1.940548      1.004051
  O      -4.332509      2.049437     -0.095764
  N      -4.255400      2.481753      2.151557
  C      -5.421182      3.358095      2.131904
  C      -3.620285      2.307176      3.454991
  H      -2.833888      1.564418      3.405279
  H      -4.373442      1.982664      4.175036
  H      -3.201054      3.256962      3.794500
  H      -5.802051      3.439553      1.119990
  H      -5.142546      4.348559      2.497972
  H      -6.197775      2.951281      2.782444
  H      -0.953597     -2.732941     -1.718190
  H      -4.156003     -0.565423      0.123833
  H      -3.376427     -2.487893     -1.244142
  H       1.309639     -1.985487     -1.509166
  H       2.971802     -0.307064     -0.770059
  H       0.237827      4.400269      1.409852
  H       2.673902      4.057285      1.209999
  H       3.514612      1.906699      0.183934
