! B3LYP/G VERYTIGHTOPT FREQ Def2-TZVP(-f) Def2-TZVP/C Def2/J RIJCOSX TightSCF CPCM(Water) AllPop SOSCF

%tddft
    NRoots 3
    IRoot 1
end 

* xyz 0 1
  C   -3.12087192703524     -0.64375484774937     -0.17509944076070
  C   -2.67557237067362     -1.73303798077613     -0.92229199608865
  C   -1.31949796039919     -1.87143195092305     -1.17691219457670
  C   -2.21214190547548      0.31991025452364      0.28602474558309
  C   -0.82113087993950      0.27673622153237     -0.03479642714783
  O   -2.63498144390484      1.24398539876685      1.18855074832960
  C   -0.37643870931578     -0.90782602211272     -0.73570260125468
  C   0.98442356538579     -1.08988841630951     -0.99682826091951
  C   1.91561475843292     -0.13431111705323     -0.59688341579230
  C   0.11790915978979      1.32763211156651      0.24797261646743
  C   1.52078417491001      1.07781243640450     -0.00416706890002
  N   -0.30558123232688      2.52806688290511      0.72189297762733
  C   0.62340978637044      3.44740695974640      1.05705384541838
  C   1.99432481278766      3.25961193473067      0.93284478791646
  C   2.46052659253979      2.07093650322348      0.37092047763987
  C   -3.82667732276808      1.93868757996704      1.00353723270188
  O   -4.34376703189302      2.04365648238006     -0.09349960387389
  N   -4.25478941931480      2.48223888797274      2.15201037205029
  C   -5.42901227675256      3.34728461855641      2.13641134961215
  C   -3.60412898151772      2.32649396999597      3.45016113986718
  H   -2.77722922106739      1.63043110525503      3.38693116714979
  H   -4.33264467231194      1.95327560096636      4.17220958464789
  H   -3.23627979009871      3.29482793521057      3.79654274390292
  H   -5.86610620617295      3.35546362461924      1.14413992587756
  H   -5.14604678120242      4.36373806660890      2.41932122177495
  H   -6.16250871917112      2.97663949018861      2.85458434651013
  H   -0.95376738492604     -2.72925228300467     -1.72736963001812
  H   -4.15941555762419     -0.56137974761514      0.10901897650572
  H   -3.37802943871356     -2.48189753499118     -1.26084080003836
  H   1.30899768999310     -1.98617877064080     -1.50966033515054
  H   2.97170610440538     -0.31184980702740     -0.76137451024775
  H   0.23813146724427      4.39631600952427      1.41633667362341
  H   2.67435223021308      4.04941081853605      1.22466627329643
  H   3.51459889053286      1.89807558502236      0.19867507826655
*