! B3LYP/G OPT FREQ 6-311G* CPCM(Water)

* xyz 0 1 
C  -3.30833244167234674649 -0.50976188362532282028 -0.47396075371457857539
C  -2.89215734536825364032 -1.41394708503931587629 -1.44925812118844232756
C  -1.55645628480307718355 -1.56130744600487503249 -1.71795118951881509162
C  -2.38539607305379863789 0.23780283363736953728 0.22377897843805333311
C  -1.00226781129143738269 0.11104210808988890236 -0.02629742307485194441
O  -2.82203863507119612208 1.10391401734429139836 1.21417761426469139607
C  -0.59608237279585718493 -0.81001354223641497398 -1.02228383353081975216
C  0.78826136893190978938 -0.96003258822461523536 -1.32705942270057475341
C  1.73237675699186244316 -0.22992000390779621100 -0.69257812070577984276
C  0.00438045195577774216 0.87705234068972837136 0.66509187809262870772
C  1.36740510500448930742 0.70537921962538252529 0.31431073484765931214
N  -0.36341684295764498103 1.73725143679689564280 1.62616955039430766128
C  0.55316531741674213052 2.44299772968971895537 2.24213723255871988371
C  1.91997143645514345422 2.35826902322869180750 1.96383697947980850884
C  2.32501381530748263415 1.47650264645202433655 0.99260464300270689897
C  -3.62209265000685265434 2.13916573009666510785 0.85713313944437641290
O  -3.98369758808850571441 2.33866191412041413145 -0.29572720963743870382
N  -3.94986438010603713167 2.90536212782469771554 1.89990198614038741098
C  -3.47195532038162912869 2.66040432172373275677 3.24358337079321357166
C  -4.85465592440695203891 4.02037507399636862004 1.73068169958727757773
H  -5.16291927388523674836 4.06580539764998505348 0.68840218687148202470
H  -4.35378944544106083470 4.95037919152647631904 2.00090041480682501174
H  -5.73029218604823320504 3.88312559349846386780 2.36578528188660497378
H  -4.21359506803003824871 2.10259646943200939617 3.81827610351842805514
H  -3.29268986456309953326 3.61977149516099583337 3.72484842443340369300
H  -2.54504114576996354202 2.09523091383374548968 3.20097317822690241584
H  -1.22327890654325988073 -2.25481307279635290186 -2.47433605229898923028
H  -4.35814476602702249863 -0.37640121933426384793 -0.26114316663269365737
H  -3.62992009456058717376 -1.98921510848638760649 -1.98540021169623948083
H  1.06034285129267624725 -1.67362401510262825965 -2.08950470735319093762
H  2.77984082129880016865 -0.33854244302704161740 -0.93100825822830313161
H  0.18156989441341031544 3.11502784862853676628 3.00438686652380093633
H  2.62508952998380840071 2.96789187627734118990 2.50507017488828065410
H  3.36881705652798446593 1.36140909118569197744 0.73883800523316489617
*
