34
Coordinates from ORCA-job 5 E -878.329459041785
  C          -3.35698274192921     -0.76486364281044     -0.41867644113713
  C          -2.88513796819111     -1.68210790829359     -1.36767876262727
  C          -1.53991193948900     -1.72166781232617     -1.66111301157255
  C          -2.49018398145917      0.09754114661400      0.22300199820847
  C          -1.09436130670676      0.09479638235894     -0.04627654616225
  O          -3.06013689763623      0.89623864140666      1.20822675148851
  C          -0.63326235250798     -0.85254468692406     -1.01507442090966
  C           0.76384571153618     -0.93362220781601     -1.33497993590340
  C           1.67651424549359     -0.13162474358620     -0.73338395097917
  C          -0.11116172046973      0.96369005074981      0.59212536732875
  C           1.26464893545863      0.83168929003794      0.24189853086467
  N          -0.51399858508395      1.87979880058954      1.50548397423533
  C           0.38967379608444      2.65694666324319      2.08172982075006
  C           1.76554066004738      2.59635719141233      1.80650036556400
  C           2.19798960481830      1.67653697016292      0.87747822935905
  C          -3.31111583710486      2.21398684858599      0.90190442810250
  O          -3.17498299695036      2.65895975031861     -0.22443138972718
  N          -3.74710931621132      2.89790261012553      1.98242982480092
  C          -3.93762212177900      2.30583204622427      3.30288138641076
  C          -4.21912961736889      4.26706320723878      1.81527662071332
  H          -3.98856061274958      4.60952080230101      0.81100336196798
  H          -3.72743307007119      4.91999920498923      2.54088024863871
  H          -5.30109002792231      4.32389328591823      1.97445221127161
  H          -4.99184385727348      2.06433743292913      3.47748487076122
  H          -3.61889855080005      3.02429437517722      4.06120870306270
  H          -3.34427304251340      1.40337133758252      3.40367220000008
  H          -1.15518364683027     -2.42711932241306     -2.39012838717430
  H          -4.41007019645708     -0.71807646502855     -0.16547105777171
  H          -3.57987946596859     -2.35187530187292     -1.86247431398389
  H           1.07469791401493     -1.66362968367579     -2.07535894965859
  H           2.73120602983181     -0.20427696525496     -0.97970582829776
  H           0.01117152101336      3.37561232900151      2.80482974300425
  H           2.45534029056909      3.26121642093046      2.31354151157369
  H           3.24985112931385      1.58966394482803      0.62312282095026
