! B3LYP/G OPT FREQ 6-311G* CPCM(Water)

* xyz 1 1 
C  -3.47262362536682633873 -0.55193254196802521427 1.86903503578289642562
C  -3.33571681238690143090 -1.34067757393425002199 3.01189029333151259138
C  -2.11837532903113112681 -1.46614343529008928080 3.63390445612063528458
C  -2.41012802445500362580 0.19374261391593061710 1.40900783970818022084
C  -1.17308636175141023372 0.17378518712336643581 2.10023840042076770374
O  -2.40479884065975202390 0.85556992012993915431 0.20530115756348199518
C  -1.00936047457184763232 -0.74715671955676676852 3.16885006032779026341
C  0.29173118375916318179 -0.97724024877250692533 3.70427335193989071271
C  1.38757802456538481550 -0.40472365184518976911 3.15360773878116429358
C  -0.05095041222531615510 0.95938024440936031656 1.71192218924951422565
C  1.25187337929897246624 0.57756747828017473978 2.13175175596571353509
N  -0.18170916306484086178 2.08383285219238656438 0.95649450358831600294
C  0.88345702605499765170 2.65442165993161482973 0.37665300211494090465
C  2.16354288890918233790 2.19129013731814481503 0.59405212413334318455
C  2.35649381971672688962 1.20487519722312952375 1.54517928911074586829
C  -3.56441661146120747361 1.22310041602902663804 -0.44177655870809839911
O  -4.61206177056515720381 1.44130259076155509135 0.14423442620173954065
N  -3.37301168087613989499 1.34580668655748159068 -1.75131445415992592629
C  -2.11208268607946880735 1.04610947884251981321 -2.40099502928254837641
C  -4.46818141947399194436 1.75023725402230834192 -2.60602182213991140358
H  -4.66310120474001443824 0.97566843001962599846 -3.34793313734016040328
H  -4.22122681153703993573 2.68269232601413198935 -3.11285838752481458513
H  -5.35837596540423444225 1.89552034261639223978 -1.99764997475204442168
H  -1.28387329519501669495 1.41489626408255997347 -1.80196383297470585916
H  -2.10554574653051584932 1.53860933621706674757 -3.36904399753946082186
H  -2.00155004062652164265 -0.02991460166020876166 -2.54699824136122421336
H  -1.99777377565876079757 -2.13548570862679376603 4.47041726179352316706
H  -4.41434038732554068218 -0.52480431111133873934 1.34475005939675362754
H  -4.19259716118374292648 -1.88901050704028805605 3.36923825316826919263
H  0.38189286658372023631 -1.67654301160632734913 4.52016426638660284709
H  2.38062021727702743945 -0.65484036479697116384 3.48975919148571600559
H  0.67648598336959508970 3.51955694424709264467 -0.23537747205091896774
H  2.99375163957157797157 2.64993198902718285481 0.08372129502565339720
H  3.35042962765030294392 0.91242300367458017973 1.84660572532020839098
P  -1.55986752424781616178 3.17011090342129042696 1.17553297327421302221
O  -2.52953514779535426626 2.73753480243609637057 2.18329205697414874265
O  -1.93000200864171356230 3.42251037463028318086 -0.32570295498336343520
O  -0.81093828792150413065 4.51230684005699256289 1.57678520211602002377
C  -2.50934708158992503257 4.65514956668375745608 -0.79212166237692960280
C  -0.69642571237440453746 4.90242632314934034810 2.94897349361985217087
C  -3.79834269181405703719 4.98514820635075395217 -0.06818013706158265741
H  -2.68535362344398498280 4.48016357619379235189 -1.85445556740367756277
H  -1.78155146481919413048 5.45872564889594347193 -0.66006897702082500956
H  -4.25546899612098616927 5.86640263027917541194 -0.50776612461441872348
H  -3.59936061404683815823 5.17452987794908203512 0.98609879425827062782
H  -4.49670376902294233190 4.15187483408328983359 -0.13045494298682380752
C  0.39694668046098358083 4.12828248896290261882 3.66003216040150336497
H  -1.65958628509027894538 4.74276124980793145625 3.44285648365662089176
H  -0.47317537596664638322 5.97020306629670827192 2.91736546236429017398
H  1.33656323120143127881 4.21730302126395173445 3.12113652778836669910
H  0.11809435758469843947 3.07888704437652638291 3.73920841390778679880
H  0.52477524563011801462 4.52889185833250440538 4.66120000802540257467
*
